24

H	 -3.420663	 1.227371	 -1.044276
O	 -3.452007	 0.283848	 -0.965577
C	 -3.181085	 -0.079926	 0.364119
C	 -1.765924	 0.277073	 0.805136
H	 -3.327791	 -1.152017	 0.410903
H	 -3.905698	 0.375695	 1.036898
C	 -0.677594	 -0.417312	 -0.014550
H	 -1.637766	 1.358238	 0.744969
H	 -1.659588	 0.017670	 1.857098
C	 0.738335	 -0.034840	 0.421385
H	 -0.814977	 -0.178223	 -1.064632
H	 -0.802730	 -1.495410	 0.071702
C	 1.274242	 -0.926126	 1.544994
H	 1.399493	 -0.085558	 -0.440425
H	 0.747432	 1.002895	 0.752486
C	 2.655244	 -0.526700	 2.077392
H	 1.307987	 -1.958390	 1.200046
H	 0.567137	 -0.906557	 2.371696
C	 3.795073	 -0.682925	 1.069033
H	 2.876960	 -1.135864	 2.950348
H	 2.621567	 0.503058	 2.427633
H	 3.845119	 -1.700880	 0.691671
H	 4.751393	 -0.455129	 1.529901
H	 3.678767	 -0.019961	 0.218083
