23

O	 -0.016318	 1.251573	 -0.649136
C	 0.781622	 1.719742	 -1.387478
C	 2.080123	 1.073660	 -1.797495
O	 0.630629	 2.901797	 -1.962250
C	 1.938332	 -0.387361	 -2.199537
H	 2.491300	 1.666286	 -2.608160
H	 2.771050	 1.187998	 -0.968648
C	 0.874033	 -0.593345	 -3.273249
H	 1.696021	 -0.977285	 -1.322868
H	 2.894744	 -0.754878	 -2.553792
C	 -0.549392	 -0.463381	 -2.738983
H	 1.022226	 0.127795	 -4.074027
H	 0.998265	 -1.575741	 -3.723475
C	 -1.613134	 -0.668754	 -3.812150
H	 -0.674891	 0.517819	 -2.289925
H	 -0.699048	 -1.184301	 -1.940211
H	 -1.511201	 0.060185	 -4.609327
H	 -2.610614	 -0.569691	 -3.399895
H	 -1.535807	 -1.655536	 -4.256577
C	 1.774850	 3.725117	 -2.063383
H	 2.168391	 3.953019	 -1.083894
H	 1.449161	 4.628457	 -2.553025
H	 2.542901	 3.240436	 -2.647673
