24

H	 -3.436473	 1.252944	 -1.023892
O	 -3.458596	 0.315260	 -0.960865
C	 -3.176635	 -0.080824	 0.355601
C	 -1.763371	 0.265266	 0.799691
H	 -3.321825	 -1.153438	 0.379502
H	 -3.895468	 0.357385	 1.043382
C	 -0.673390	 -0.426948	 -0.013392
H	 -1.631049	 1.344913	 0.747560
H	 -1.664587	 -0.001624	 1.849167
C	 0.710996	 -0.315864	 0.619937
H	 -0.651295	 -0.006314	 -1.012638
H	 -0.932655	 -1.476494	 -0.130617
C	 1.796439	 -1.015015	 -0.196182
H	 0.958440	 0.734077	 0.743570
H	 0.685873	 -0.743207	 1.620239
C	 3.188354	 -1.000825	 0.438025
H	 1.849089	 -0.563088	 -1.184027
H	 1.500583	 -2.048725	 -0.352813
C	 3.826570	 0.381985	 0.546015
H	 3.840058	 -1.638714	 -0.151174
H	 3.136842	 -1.451699	 1.425688
H	 3.885938	 0.860101	 -0.426588
H	 4.834107	 0.310634	 0.939740
H	 3.267059	 1.037155	 1.202753
