20

O	 0.933161	 1.751544	 0.498396
C	 0.297705	 1.426058	 1.442491
C	 -0.974597	 0.619006	 1.405366
O	 0.633006	 1.737887	 2.683745
C	 -1.413045	 0.229353	 0.001137
H	 -0.816563	 -0.257523	 2.025206
H	 -1.739135	 1.202173	 1.908218
C	 -2.702562	 -0.586401	 0.000228
H	 -0.620922	 -0.335339	 -0.477616
H	 -1.545003	 1.125623	 -0.594540
C	 -3.953810	 0.284959	 -0.000782
H	 -2.717793	 -1.238567	 -0.869075
H	 -2.719108	 -1.238472	 0.869576
H	 -3.983727	 0.924403	 -0.876454
H	 -4.852989	 -0.320147	 -0.001515
H	 -3.985140	 0.924399	 0.874841
C	 1.810989	 2.497021	 2.866473
H	 2.669929	 1.966336	 2.483298
H	 1.908355	 2.644040	 3.929851
H	 1.732483	 3.449716	 2.364047
