20

O	 -0.406316	 0.104456	 2.438929
C	 -0.846966	 0.612872	 1.465048
C	 -1.705041	 1.846597	 1.455975
O	 -0.637375	 0.157174	 0.243149
H	 -2.660144	 1.621661	 0.998917
H	 -1.849763	 2.193395	 2.466135
H	 -1.229463	 2.616125	 0.861651
C	 0.162530	 -1.009518	 0.097799
C	 1.587210	 -0.664190	 0.477086
H	 0.096803	 -1.356267	 -0.924704
H	 -0.233803	 -1.785900	 0.736810
C	 2.214094	 0.434281	 -0.377398
H	 2.174811	 -1.573885	 0.388125
H	 1.612706	 -0.377945	 1.524106
C	 3.656836	 0.733795	 0.015544
H	 2.178713	 0.136844	 -1.422089
H	 1.620762	 1.337512	 -0.293888
H	 4.078251	 1.513111	 -0.608525
H	 4.283307	 -0.146277	 -0.086432
H	 3.720391	 1.065726	 1.046466
