16

O	 -2.081319	 -0.951530	 -0.502732
N	 -1.613558	 0.006676	 0.014756
C	 -0.329345	 -0.171618	 0.743966
O	 -2.068523	 1.100482	 -0.024385
C	 0.835904	 0.041968	 -0.213982
H	 -0.346048	 -1.174374	 1.137184
H	 -0.333613	 0.555559	 1.538590
C	 1.731371	 -1.192268	 -0.284458
H	 0.444754	 0.272852	 -1.197981
H	 1.411172	 0.898743	 0.117290
C	 2.910695	 -1.002197	 -1.231848
H	 1.143452	 -2.046908	 -0.605984
H	 2.100464	 -1.427646	 0.709411
H	 2.571917	 -0.798391	 -2.241497
H	 3.534756	 -0.173056	 -0.917541
H	 3.529708	 -1.890481	 -1.262457
