29

O	 3.477722	 -2.787965	 0.246951
C	 2.574127	 -2.072921	 -0.023620
C	 2.682995	 -0.760433	 -0.757004
O	 1.317782	 -2.342573	 0.292610
C	 4.110743	 -0.401571	 -1.149440
H	 2.029257	 -0.826860	 -1.618262
H	 2.251506	 0.000871	 -0.114693
C	 4.822327	 -1.489455	 -1.955043
H	 4.681305	 -0.173970	 -0.255724
H	 4.089354	 0.512432	 -1.730087
C	 4.011876	 -2.073880	 -3.110908
H	 5.084199	 -2.294108	 -1.274512
H	 5.763700	 -1.099806	 -2.336187
C	 3.372300	 -1.004103	 -3.991991
H	 4.660272	 -2.699409	 -3.720143
H	 3.231143	 -2.725029	 -2.728814
C	 2.262247	 -0.224650	 -3.292699
H	 2.971514	 -1.470354	 -4.888830
H	 4.139204	 -0.310030	 -4.328123
C	 1.627062	 0.840873	 -4.179817
H	 1.495090	 -0.916834	 -2.956437
H	 2.661858	 0.244295	 -2.397569
H	 0.844236	 1.374990	 -3.653619
H	 1.186648	 0.399238	 -5.067569
H	 2.362859	 1.568904	 -4.505059
C	 0.824678	 -3.623490	 -0.043565
H	 -0.139967	 -3.792406	 0.411591
H	 1.544729	 -4.329140	 0.337866
H	 0.731980	 -3.727573	 -1.114467
