11

O   -0.291628   1.323815    -0.000732
C   -0.449655   0.146360    0.000961
C   -1.783294   -0.549321    -0.000296
O   0.550821   -0.724572    0.000672
H   -1.863538   -1.185371    -0.874187
H   -2.574672   0.185258    -0.002793
H   -1.866414   -1.182381    0.875436
C   1.863949   -0.193559    -0.000319
H   2.028859   0.409284    -0.881648
H   2.526261   -1.045082    -0.000003
H   2.029520   0.410555    0.880008
