13

H	 -3.813701	 1.149108	 -0.316387
C	 -3.102956	 0.567754	 0.234227
C	 -2.105997	 -0.000418	 -0.398703
H	 -3.226258	 0.467402	 1.294663
O	 -1.189946	 -0.765863	 0.237511
H	 -1.968127	 0.100558	 -1.459798
C	 0.026572	 -0.995256	 -0.379403
C	 1.057223	 0.049888	 -0.004615
H	 -0.054361	 -1.010670	 -1.459674
H	 0.397526	 -1.952058	 -0.044198
F	 2.203233	 -0.234060	 -0.590375
F	 0.698147	 1.254887	 -0.392621
F	 1.266440	 0.094219	 1.288722
