16

H   -2.266619   1.169943    0.000098
O   -1.438073   1.611259    0.000041
C   -0.408657   0.734701    0.000005
C   0.866504   1.268905    0.000030
C   -0.607242   -0.641045    -0.000017
H   0.977953   2.335446    0.000061
C   1.963238   0.433356    0.000014
C   0.512776   -1.456574    -0.000032
C   -1.999429   -1.222438    -0.000029
H   2.950154   0.855229    0.000028
C   1.792045   -0.937455    -0.000025
H   0.376124   -2.522076    -0.000058
H   -2.563061   -0.918792    -0.877775
H   -1.962052   -2.302273    -0.000040
H   -2.563066   -0.918808    0.877722
H   2.640511   -1.593561    -0.000043
