21

H	 -2.768383	 2.973534	 -1.413602
O	 -2.071028	 2.389108	 -1.646707
C	 -1.555812	 1.769706	 -0.498093
C	 -0.436199	 0.837238	 -0.914137
H	 -1.177845	 2.514616	 0.199061
H	 -2.334742	 1.208040	 0.013405
C	 0.196029	 0.106276	 0.266738
H	 0.316343	 1.416767	 -1.439539
H	 -0.832157	 0.121460	 -1.627436
C	 1.330220	 -0.826136	 -0.155230
H	 0.564048	 0.835939	 0.981488
H	 -0.565691	 -0.472688	 0.784586
C	 2.719700	 -0.407669	 0.328325
H	 1.339388	 -0.911200	 -1.239363
H	 1.119001	 -1.821953	 0.224128
C	 3.241564	 0.893452	 -0.276737
H	 3.418299	 -1.204729	 0.093035
H	 2.711776	 -0.323368	 1.411960
H	 3.254204	 0.841071	 -1.360784
H	 2.634460	 1.745075	 0.005842
H	 4.254264	 1.092401	 0.054971
