17

O	 -1.278239	 1.034789	 -0.784693
C	 -1.204115	 0.062668	 -0.112312
C	 -2.386398	 -0.667698	 0.460323
O	 -0.068058	 -0.518372	 0.226882
H	 -2.382952	 -1.693172	 0.114333
H	 -3.296656	 -0.175702	 0.158400
H	 -2.312537	 -0.685191	 1.540100
C	 1.169086	 0.037484	 -0.230612
C	 0.953627	 1.535015	 -0.320570
C	 1.555288	 -0.587696	 -1.558996
H	 1.925142	 -0.184660	 0.507032
H	 0.675081	 1.940084	 0.643836
H	 1.864876	 2.022040	 -0.646366
H	 0.167989	 1.768146	 -1.029343
H	 2.485651	 -0.159083	 -1.912855
H	 1.692977	 -1.654929	 -1.455542
H	 0.789030	 -0.402313	 -2.303150
