11

H	 -1.835082	 1.385983	 0.000069
C	 -1.300516	 0.441153	 -0.000028
O	 -0.006604	 0.654344	 -0.000106
O	 -1.828920	 -0.612308	 0.000113
C	 0.647086	 0.762183	 1.261196
C	 2.114790	 1.004397	 1.000660
H	 0.485714	 -0.150303	 1.817331
H	 0.201100	 1.574395	 1.817408
H	 2.547061	 0.185466	 0.439890
H	 2.642472	 1.091445	 1.942907
H	 2.261017	 1.918826	 0.439940
