25

O	 -4.741559	 3.677983	 3.374923
C	 -3.562142	 3.759984	 3.486103
C	 -2.630085	 2.634875	 3.084568
C	 -2.907686	 5.004973	 4.041002
C	 -2.930863	 2.021940	 1.724174
H	 -1.614819	 3.023858	 3.116108
H	 -2.673335	 1.879345	 3.865793
C	 -2.110802	 2.652754	 0.602263
H	 -3.988602	 2.128632	 1.512230
H	 -2.740577	 0.955512	 1.764862
C	 -2.403198	 2.047140	 -0.767433
H	 -2.304841	 3.722575	 0.568981
H	 -1.051155	 2.543747	 0.822550
C	 -3.883257	 2.070613	 -1.138393
H	 -2.044599	 1.020965	 -0.789457
H	 -1.835561	 2.582541	 -1.524573
C	 -4.707702	 1.035619	 -0.380193
H	 -4.285760	 3.061641	 -0.946571
H	 -3.988294	 1.901543	 -2.206709
H	 -4.651233	 1.198842	 0.690886
H	 -5.752340	 1.078808	 -0.666354
H	 -4.351748	 0.030178	 -0.578761
H	 -2.221465	 5.423139	 3.312795
H	 -3.662109	 5.735040	 4.290482
H	 -2.329392	 4.760820	 4.925313
