25

O	 2.005572	 2.943931	 1.460569
C	 2.367980	 1.813654	 1.495840
C	 1.453557	 0.658005	 1.143506
C	 3.779551	 1.451008	 1.898552
C	 0.042673	 1.068609	 0.746467
H	 1.930491	 0.095120	 0.344280
H	 1.433108	 -0.015390	 1.997395
C	 -0.840859	 -0.126813	 0.400853
H	 0.093998	 1.745438	 -0.098745
H	 -0.403761	 1.634962	 1.555834
C	 -2.258482	 0.271340	 0.000669
H	 -0.385726	 -0.691463	 -0.409887
H	 -0.886091	 -0.802217	 1.252349
C	 -2.305585	 1.289336	 -1.135201
H	 -2.774779	 0.677256	 0.867146
H	 -2.811336	 -0.617919	 -0.292077
C	 -3.572900	 2.137654	 -1.127623
H	 -1.437227	 1.939525	 -1.070796
H	 -2.226298	 0.769809	 -2.086371
H	 -3.663669	 2.697063	 -0.202494
H	 -3.574663	 2.849112	 -1.945453
H	 -4.458537	 1.518747	 -1.225834
H	 4.269355	 0.908298	 1.097549
H	 4.337303	 2.346620	 2.124789
H	 3.765339	 0.800823	 2.766365
