20

O	 0.714607	 0.658426	 -0.974930
C	 1.121787	 0.124983	 0.000110
C	 0.539878	 0.266447	 1.383162
O	 2.167739	 -0.685178	 -0.000678
C	 -0.668836	 1.188750	 1.448673
H	 0.292230	 -0.731310	 1.730484
H	 1.336375	 0.615662	 2.032087
C	 -1.232555	 1.308656	 2.861526
H	 -1.436503	 0.821327	 0.776938
H	 -0.391317	 2.169682	 1.079485
C	 -2.445794	 2.229012	 2.938256
H	 -1.505698	 0.322314	 3.227262
H	 -0.458830	 1.677054	 3.530008
H	 -3.250339	 1.868141	 2.306540
H	 -2.824400	 2.295001	 3.951656
H	 -2.195879	 3.232721	 2.611619
C	 3.449556	 -0.089977	 -0.000570
H	 3.585694	 0.522473	 -0.879546
H	 4.155805	 -0.904274	 -0.001389
H	 3.586173	 0.521118	 0.879272
