20

O	 -1.052457	 -0.085021	 2.398761
C	 -0.846966	 0.612872	 1.465048
C	 -0.788617	 2.113771	 1.513527
O	 -0.637375	 0.157174	 0.243149
H	 -1.539450	 2.528201	 0.853061
H	 -0.957282	 2.449395	 2.523748
H	 0.178629	 2.451688	 1.164504
C	 0.162530	 -1.009518	 0.097799
C	 1.587210	 -0.664190	 0.477086
H	 0.096803	 -1.356267	 -0.924704
H	 -0.233803	 -1.785900	 0.736810
C	 1.721937	 0.054830	 1.816721
H	 1.989283	 -0.037201	 -0.314090
H	 2.179367	 -1.574206	 0.484768
C	 3.166733	 0.411056	 2.150312
H	 1.122066	 0.960838	 1.796677
H	 1.311784	 -0.568996	 2.602507
H	 3.233107	 0.923372	 3.102947
H	 3.596342	 1.060832	 1.394918
H	 3.784949	 -0.478480	 2.209921
