13

H	 -2.421535	 -0.633953	 -1.178422
O	 -2.336992	 -0.303500	 -0.302891
C	 -1.180551	 0.477527	 -0.189836
C	 0.069907	 -0.379240	 -0.179904
H	 -1.113654	 1.209408	 -0.988587
H	 -1.254322	 1.017129	 0.743475
O	 1.172093	 0.457955	 -0.054438
H	 0.132042	 -0.957710	 -1.103163
H	 0.019502	 -1.086338	 0.645352
C	 2.395478	 -0.199028	 -0.000366
H	 2.505946	 -0.901710	 -0.823354
H	 3.174616	 0.545641	 -0.071768
H	 2.513730	 -0.742241	 0.934223
