22

H	 4.593262	 0.300174	 -0.540077
C	 3.737539	 -0.340578	 -0.363207
C	 2.438852	 0.457609	 -0.394198
H	 3.740894	 -1.112605	 -1.125441
H	 3.880952	 -0.824682	 0.597050
C	 1.209450	 -0.404650	 -0.149150
H	 2.329127	 0.954191	 -1.351868
H	 2.480625	 1.242070	 0.357768
N	 -0.006886	 0.376881	 -0.208086
H	 1.152759	 -1.173422	 -0.913967
H	 1.318162	 -0.927551	 0.805753
C	 -1.215959	 -0.382435	 0.027143
H	 0.047220	 1.133967	 0.440923
C	 -2.451944	 0.502410	 -0.038737
H	 -1.284466	 -1.151099	 -0.736820
H	 -1.195004	 -0.904538	 0.988417
C	 -3.752217	 -0.292550	 0.005776
H	 -2.407325	 1.093801	 -0.946480
H	 -2.431979	 1.206234	 0.790023
H	 -3.817783	 -0.982946	 -0.828547
H	 -4.612613	 0.364348	 -0.042306
H	 -3.830160	 -0.871666	 0.919868
