24

H	 -3.436671	 1.252971	 -1.023948
O	 -3.458794	 0.315287	 -0.960921
C	 -3.176833	 -0.080797	 0.355545
C	 -1.763569	 0.265293	 0.799635
H	 -3.322023	 -1.153411	 0.379446
H	 -3.895666	 0.357412	 1.043326
C	 -0.673588	 -0.426921	 -0.013448
H	 -1.631247	 1.344940	 0.747504
H	 -1.664785	 -0.001597	 1.849111
C	 0.737644	 -0.043132	 0.423703
H	 -0.806301	 -0.190491	 -1.063401
H	 -0.797419	 -1.503726	 0.074090
C	 1.823802	 -0.743197	 -0.390679
H	 0.850390	 1.033804	 0.343784
H	 0.868389	 -0.286287	 1.476147
C	 3.255759	 -0.453040	 0.062263
H	 1.718052	 -0.470572	 -1.438220
H	 1.657907	 -1.815823	 -0.339960
C	 3.706831	 0.992364	 -0.133913
H	 3.928003	 -1.104069	 -0.488214
H	 3.362469	 -0.724534	 1.109318
H	 3.605613	 1.294071	 -1.171605
H	 4.748135	 1.111056	 0.143287
H	 3.129684	 1.683105	 0.468900
