22

O	 1.817348	 1.472361	 2.396241
C	 1.656171	 0.308988	 2.217305
C	 0.361713	 -0.220117	 1.632093
C	 2.732635	 -0.698903	 2.543112
C	 0.376695	 -0.140025	 0.100361
H	 -0.445817	 0.387940	 2.019744
H	 0.198123	 -1.245495	 1.946264
C	 1.630207	 -0.772146	 -0.501001
H	 -0.512714	 -0.630935	 -0.274055
H	 0.316172	 0.899441	 -0.212923
C	 2.907848	 -0.545876	 0.309149
H	 1.772784	 -0.391628	 -1.509394
H	 1.468529	 -1.842059	 -0.599744
C	 3.373802	 0.906639	 0.372125
H	 3.699140	 -1.146831	 -0.127906
H	 2.764321	 -0.923458	 1.318191
H	 3.519798	 1.311927	 -0.623875
H	 4.316899	 0.983758	 0.900700
H	 2.661122	 1.540651	 0.885346
H	 2.405546	 -1.313662	 3.375627
H	 3.648492	 -0.192849	 2.807092
H	 2.902955	 -1.362442	 1.702698
