23

O	 1.451864	 1.980981	 -0.402384
C	 0.556779	 2.109777	 -1.166107
C	 -0.737730	 1.338425	 -1.136039
O	 0.579756	 2.970813	 -2.170351
C	 -0.824290	 0.329213	 -0.000115
H	 -1.542336	 2.064248	 -1.079132
H	 -0.845052	 0.854153	 -2.101132
C	 -2.146151	 -0.432825	 -0.000068
H	 -0.695754	 0.843652	 0.945456
H	 0.002508	 -0.367704	 -0.077589
C	 -3.366283	 0.483552	 0.000557
H	 -2.189286	 -1.084450	 -0.869996
H	 -2.188867	 -1.085083	 0.869399
C	 -4.687436	 -0.278003	 0.000108
H	 -3.325150	 1.134819	 -0.867957
H	 -3.325087	 1.133730	 0.869885
H	 -4.773783	 -0.912098	 -0.876078
H	 -5.531922	 0.401392	 0.000363
H	 -4.773901	 -0.912898	 0.875703
C	 1.739771	 3.764408	 -2.318324
H	 1.899578	 4.373439	 -1.440967
H	 1.564777	 4.389778	 -3.178636
H	 2.608556	 3.143497	 -2.479250
