25

H	 -2.937319	 -0.204620	 1.958032
C	 -3.149605	 -0.344318	 0.890773
C	 -2.696669	 0.782851	 -0.001947
O	 -3.699116	 -1.328476	 0.514980
C	 -1.220012	 1.144545	 0.209990
H	 -2.895418	 0.505491	 -1.030674
H	 -3.314895	 1.647590	 0.236125
C	 -0.252658	 0.041456	 -0.226725
H	 -1.005419	 2.053023	 -0.344900
H	 -1.053809	 1.384444	 1.259076
C	 1.180775	 0.282413	 0.250794
H	 -0.266029	 -0.034465	 -1.312038
H	 -0.597733	 -0.921000	 0.146291
C	 2.148627	 -0.814315	 -0.201312
H	 1.516199	 1.249228	 -0.115937
H	 1.192670	 0.346017	 1.338083
C	 3.580890	 -0.659131	 0.322722
H	 2.166869	 -0.852443	 -1.289387
H	 1.762857	 -1.776509	 0.128956
C	 4.324889	 0.564933	 -0.213704
H	 4.142010	 -1.551473	 0.056605
H	 3.564836	 -0.624694	 1.410140
H	 4.342616	 0.565491	 -1.300421
H	 3.866655	 1.493402	 0.110242
H	 5.353900	 0.572371	 0.132816
