23

O	 1.456322	 1.545947	 -0.430600
C	 0.781622	 1.719742	 -1.387478
C	 -0.007731	 0.656408	 -2.107119
O	 0.630629	 2.901797	 -1.962250
C	 -0.812649	 -0.243059	 -1.180086
H	 -0.650671	 1.161761	 -2.820347
H	 0.695597	 0.080964	 -2.700109
C	 -1.714788	 0.550889	 -0.239975
H	 -0.133702	 -0.861456	 -0.603988
H	 -1.409676	 -0.925630	 -1.774178
C	 -0.948149	 1.246080	 0.881383
H	 -2.267205	 1.294919	 -0.809629
H	 -2.459540	 -0.112403	 0.194337
C	 -1.849676	 2.040003	 1.820716
H	 -0.204660	 1.909554	 0.448735
H	 -0.397314	 0.503708	 1.452018
H	 -2.388987	 2.814077	 1.284816
H	 -1.274466	 2.520270	 2.603794
H	 -2.582912	 1.397054	 2.296338
C	 1.774850	 3.725117	 -2.063383
H	 2.168391	 3.953019	 -1.083894
H	 1.449161	 4.628457	 -2.553025
H	 2.542901	 3.240436	 -2.647673
