25

O	 -0.955772	 -3.077419	 -3.813118
C	 -1.815397	 -3.651840	 -3.228999
C	 -2.511924	 -3.057334	 -2.021835
C	 -2.275147	 -5.027384	 -3.656472
C	 -2.016458	 -1.673667	 -1.625843
H	 -3.578235	 -3.038352	 -2.235581
H	 -2.395753	 -3.758550	 -1.198545
C	 -2.745810	 -1.116054	 -0.406735
H	 -2.135135	 -0.999554	 -2.466439
H	 -0.951540	 -1.720403	 -1.428616
C	 -2.258482	 0.271340	 0.000669
H	 -3.813452	 -1.074332	 -0.610883
H	 -2.624119	 -1.798238	 0.431762
C	 -2.305585	 1.289336	 -1.135201
H	 -1.239981	 0.198056	 0.374030
H	 -2.860055	 0.632959	 0.831012
C	 -3.572900	 2.137654	 -1.127623
H	 -1.437227	 1.939525	 -1.070796
H	 -2.226298	 0.769809	 -2.086371
H	 -3.663669	 2.697063	 -0.202494
H	 -3.574663	 2.849112	 -1.945453
H	 -4.458537	 1.518747	 -1.225834
H	 -3.333459	 -5.011477	 -3.892631
H	 -1.714717	 -5.348553	 -4.520856
H	 -2.136351	 -5.736086	 -2.847448
