15

O   -0.988175   -1.402891    0.050086
C   -0.675048   -0.248293    -0.009686
C   -1.742492   0.826599    -0.011538
N   0.622280   0.144970    -0.099307
H   -1.692153   1.431066    -0.908439
H   -2.698310   0.331559    0.031353
H   -1.642148   1.483784    0.843455
C   1.664396   -0.854993    0.000772
C   1.062627   1.511897    0.046841
H   2.462727   -0.615153    -0.690869
H   1.261798   -1.821849    -0.240651
H   2.081615   -0.891605    1.003877
H   1.933505   1.673570    -0.575308
H   0.305296   2.210116    -0.265946
H   1.339582   1.741688    1.073260
