19

O	 -2.071633	 -1.227563	 -0.223463
C	 -1.652164	 -0.152425	 0.058082
C	 -0.327811	 0.006324	 0.778296
C	 -2.402515	 1.108629	 -0.298924
C	 -0.536205	 0.505788	 2.213054
H	 0.208001	 -0.936998	 0.791518
H	 0.261961	 0.725739	 0.224717
C	 -1.056992	 1.938959	 2.268110
H	 0.399139	 0.444183	 2.763535
H	 -1.234590	 -0.156426	 2.713149
C	 -1.277720	 2.435664	 3.692795
H	 -0.356750	 2.596663	 1.760557
H	 -1.989886	 2.000492	 1.715424
H	 -0.353843	 2.419064	 4.261311
H	 -1.997956	 1.815736	 4.215593
H	 -1.650858	 3.453080	 3.698507
H	 -3.240910	 0.874416	 -0.936711
H	 -1.747554	 1.818823	 -0.790984
H	 -2.760419	 1.579708	 0.610998
