27

H	 2.309404	 2.269312	 -0.572098
O	 3.077563	 1.875803	 -0.942114
C	 3.404928	 0.701844	 -0.246467
C	 2.455801	 -0.453750	 -0.526548
H	 4.402961	 0.436454	 -0.568149
H	 3.452181	 0.895427	 0.823460
C	 1.028507	 -0.226750	 -0.033443
H	 2.447698	 -0.642656	 -1.595850
H	 2.863139	 -1.343202	 -0.051838
C	 0.113298	 -1.420414	 -0.302504
H	 0.619974	 0.656916	 -0.512233
H	 1.044949	 -0.023957	 1.036085
C	 -1.311023	 -1.277304	 0.237018
H	 0.074450	 -1.606178	 -1.373116
H	 0.561044	 -2.305342	 0.141225
C	 -2.041121	 -0.006551	 -0.194127
H	 -1.888548	 -2.136293	 -0.093331
H	 -1.289731	 -1.328757	 1.323321
C	 -3.489218	 0.042606	 0.286507
H	 -2.022185	 0.066287	 -1.279394
H	 -1.518764	 0.869305	 0.178730
C	 -4.219984	 1.311773	 -0.139038
H	 -4.022855	 -0.824300	 -0.093339
H	 -3.510372	 -0.038577	 1.370031
H	 -4.244251	 1.405725	 -1.219696
H	 -5.244345	 1.313233	 0.215630
H	 -3.732090	 2.196311	 0.257073
