13

O   0.395927   1.296676    -0.000076
C   0.503051   0.114301    -0.000074
C   -0.701422   -0.805636    -0.000109
C   1.858118   -0.556123    0.000212
C   -2.036852   -0.078513    0.000015
H   -0.615294   -1.458226    -0.865062
H   -0.615227   -1.458430    0.864686
H   -2.134446   0.553558    -0.872447
H   -2.853050   -0.791027    -0.000045
H   -2.134396   0.553354    0.872632
H   1.961106   -1.191101    -0.872843
H   2.636688   0.191085    -0.000109
H   1.961070   -1.190284    0.873873
