20

O	 0.084313	 -0.156740	 0.495429
C	 1.121787	 0.124983	 0.000110
C	 1.433484	 1.422156	 -0.701067
O	 2.167739	 -0.685178	 -0.000678
C	 0.266107	 2.397923	 -0.733254
H	 2.295023	 1.856263	 -0.204296
H	 1.765338	 1.173104	 -1.703717
C	 0.615899	 3.699281	 -1.449090
H	 -0.050871	 2.610718	 0.281529
H	 -0.580815	 1.927268	 -1.219825
C	 -0.546411	 4.685497	 -1.485184
H	 1.467190	 4.164509	 -0.959082
H	 0.932903	 3.479672	 -2.465218
H	 -0.864022	 4.951690	 -0.482762
H	 -0.269706	 5.599007	 -1.998614
H	 -1.402130	 4.261969	 -1.999917
C	 3.449556	 -0.089977	 -0.000570
H	 3.585694	 0.522473	 -0.879546
H	 4.155805	 -0.904274	 -0.001389
H	 3.586173	 0.521118	 0.879272
