17

O	 -1.278239	 1.034789	 -0.784693
C	 -1.204115	 0.062668	 -0.112312
C	 -2.386398	 -0.667698	 0.460323
O	 -0.068058	 -0.518372	 0.226882
H	 -2.382952	 -1.693172	 0.114333
H	 -3.296656	 -0.175702	 0.158400
H	 -2.312537	 -0.685191	 1.540100
C	 1.169086	 0.037484	 -0.230612
C	 1.930764	 -1.100438	 -0.880299
C	 1.915350	 0.662872	 0.934115
H	 0.940584	 0.796594	 -0.963161
H	 1.363469	 -1.521483	 -1.700450
H	 2.876572	 -0.740612	 -1.267191
H	 2.130846	 -1.887567	 -0.163131
H	 2.858014	 1.073494	 0.591661
H	 1.338144	 1.463924	 1.374339
H	 2.123094	 -0.080561	 1.695320
