23

O	 1.816773	 1.332945	 -0.963344
C	 0.781622	 1.719742	 -1.387478
C	 -0.518669	 0.958420	 -1.351787
O	 0.630629	 2.901797	 -1.962250
C	 -0.824290	 0.329213	 -0.000115
H	 -1.301960	 1.647247	 -1.650821
H	 -0.472151	 0.207303	 -2.133516
C	 -2.104457	 -0.500669	 -0.022222
H	 -0.904514	 1.110115	 0.747568
H	 0.011631	 -0.291316	 0.302324
C	 -3.370118	 0.350788	 -0.062112
H	 -2.092402	 -1.163297	 -0.884793
H	 -2.134590	 -1.144551	 0.853989
C	 -4.649591	 -0.478580	 -0.084704
H	 -3.341537	 0.993609	 -0.937396
H	 -3.384018	 1.011864	 0.799831
H	 -4.681433	 -1.126026	 -0.954781
H	 -5.527926	 0.155816	 -0.113050
H	 -4.724451	 -1.107337	 0.796372
C	 1.774850	 3.725117	 -2.063383
H	 2.168391	 3.953019	 -1.083894
H	 1.449161	 4.628457	 -2.553025
H	 2.542901	 3.240436	 -2.647673
