25

O	 2.862325	 1.357334	 0.000267
C	 2.843464	 0.164689	 -0.000222
C	 1.546494	 -0.624492	 -0.000609
C	 4.124123	 -0.644674	 -0.000428
C	 0.291004	 0.242674	 0.000989
H	 1.557904	 -1.283758	 -0.867573
H	 1.558622	 -1.285963	 0.864672
C	 -0.994322	 -0.586602	 0.000262
H	 0.309117	 0.896430	 -0.865270
H	 0.309661	 0.894078	 0.869017
C	 -2.259874	 0.272531	 0.000494
H	 -1.004862	 -1.240012	 -0.870939
H	 -1.005220	 -1.241071	 0.870675
C	 -3.547657	 -0.546637	 0.103415
H	 -2.287339	 0.872261	 -0.907575
H	 -2.215543	 0.977516	 0.828762
C	 -4.807483	 0.318534	 0.102811
H	 -3.593674	 -1.250893	 -0.724672
H	 -3.522043	 -1.145426	 1.011520
H	 -4.879790	 0.904970	 -0.808788
H	 -5.703374	 -0.290317	 0.176163
H	 -4.808228	 1.010391	 0.940354
H	 4.165367	 -1.288615	 -0.874074
H	 4.976217	 0.020734	 -0.001915
H	 4.166763	 -1.286207	 0.874930
