22

H	 1.661577	 0.441113	 -2.902664
C	 1.593065	 0.398808	 -1.820860
C	 0.172366	 0.051844	 -1.396909
H	 1.879035	 1.363418	 -1.420023
H	 2.314247	 -0.331809	 -1.476145
N	 0.000297	 0.000045	 0.046090
H	 -0.489383	 0.809835	 -1.792705
H	 -0.134395	 -0.889554	 -1.861234
C	 -1.359159	 0.315706	 0.454404
C	 0.474790	 -1.250305	 0.617058
C	 -2.416729	 -0.286720	 -0.460525
H	 -1.478729	 1.390261	 0.442008
H	 -1.539692	 0.003361	 1.486761
C	 0.938898	 -1.113792	 2.060805
H	 1.311691	 -1.599144	 0.028018
H	 -0.290576	 -2.028090	 0.545096
H	 -2.285276	 0.073129	 -1.473515
H	 -2.371743	 -1.368476	 -0.483209
H	 -3.408658	 -0.007405	 -0.121593
H	 1.745415	 -0.394218	 2.129010
H	 0.143482	 -0.785382	 2.718253
H	 1.296598	 -2.068539	 2.431372
