20

O	 1.214711	 1.306902	 -0.000018
C	 1.122059	 0.121804	 -0.000188
C	 -0.170150	 -0.657997	 -0.000612
O	 2.172624	 -0.688929	 0.000216
C	 -1.412532	 0.227344	 -0.000452
H	 -0.153702	 -1.313099	 -0.867402
H	 -0.153924	 -1.313811	 0.865644
C	 -2.074960	 0.299830	 -1.377151
H	 -1.141557	 1.225078	 0.330613
H	 -2.121587	 -0.150305	 0.729703
C	 -3.321329	 1.183852	 -1.385711
H	 -1.359990	 0.678049	 -2.105056
H	 -2.342072	 -0.702718	 -1.705205
H	 -3.080862	 2.202351	 -1.095042
H	 -3.771294	 1.218383	 -2.372937
H	 -4.070186	 0.811374	 -0.692808
C	 3.452279	 -0.082609	 0.000533
H	 3.583069	 0.529321	 -0.880332
H	 4.163299	 -0.894027	 0.001117
H	 3.582335	 0.529955	 0.881077
