24

H	 -3.420663	 1.227371	 -1.044276
O	 -3.452007	 0.283848	 -0.965577
C	 -3.181085	 -0.079926	 0.364119
C	 -1.765924	 0.277073	 0.805136
H	 -3.327791	 -1.152017	 0.410903
H	 -3.905698	 0.375695	 1.036898
C	 -0.677594	 -0.417312	 -0.014550
H	 -1.637766	 1.358238	 0.744969
H	 -1.659588	 0.017670	 1.857098
C	 0.738335	 -0.034840	 0.421385
H	 -0.814977	 -0.178223	 -1.064632
H	 -0.802730	 -1.495410	 0.071702
C	 0.752527	 1.000545	 1.549154
H	 1.266539	 -0.932326	 0.734335
H	 1.286360	 0.359491	 -0.433469
C	 2.148619	 1.482084	 1.960498
H	 0.243825	 0.590460	 2.420216
H	 0.168416	 1.863559	 1.236363
C	 3.030259	 0.406300	 2.597526
H	 2.035964	 2.302132	 2.665566
H	 2.656158	 1.897284	 1.092042
H	 2.542459	 -0.036068	 3.462107
H	 3.973098	 0.828587	 2.931541
H	 3.261255	 -0.394104	 1.902431
