14

O	 0.074770	 1.259872	 0.000487
C	 0.029490	 0.077183	 0.000078
C	 -1.232113	 -0.748027	 0.000015
O	 1.106773	 -0.690081	 -0.000204
C	 -2.501422	 0.088592	 -0.000052
H	 -1.188777	 -1.400384	 -0.865133
H	 -1.188857	 -1.400312	 0.865225
H	 -2.548170	 0.725504	 -0.873205
H	 -3.371613	 -0.556398	 -0.000040
H	 -2.548215	 0.725571	 0.873047
C	 1.270999	 -1.577640	 -1.087821
H	 0.447419	 -2.274294	 -1.139049
H	 2.193450	 -2.104592	 -0.905527
H	 1.330309	 -1.033072	 -2.018505
