19

H	 2.756920	 0.103649	 0.000000
N	 1.779253	 0.317022	 0.000000
C	 1.146782	 -0.200781	 1.199405
C	 1.146782	 -0.200781	 -1.199405
H	 1.637748	 0.224995	 2.067988
H	 1.216363	 -1.288678	 1.272049
C	 -0.322171	 0.194955	 1.198662
H	 1.637748	 0.224995	 -2.067988
H	 1.216363	 -1.288678	 -1.272049
C	 -0.322172	 0.194955	 -1.198662
H	 -0.398558	 1.283447	 1.278968
H	 -0.814734	 -0.235868	 2.064295
N	 -0.975973	 -0.298720	 0.000000
H	 -0.814734	 -0.235868	 -2.064295
H	 -0.398558	 1.283447	 -1.278968
C	 -2.393840	 -0.024974	 0.000000
H	 -2.854010	 -0.467191	 -0.876721
H	 -2.854010	 -0.467191	 0.876721
H	 -2.623258	 1.044945	 -0.000000
