23

O	 -2.817697	 1.304178	 0.001046
C	 -2.664672	 0.129869	 0.003507
C	 -3.797908	 -0.860100	 -0.001145
O	 -1.481217	 -0.452708	 0.001092
H	 -4.408836	 -0.679689	 -0.875387
H	 -3.443486	 -1.878443	 -0.002770
H	 -4.412123	 -0.683688	 0.871605
C	 -0.332055	 0.384012	 -0.000250
C	 0.892252	 -0.506059	 -0.000295
H	 -0.360822	 1.020205	 -0.874146
H	 -0.359817	 1.021310	 0.872861
C	 2.188199	 0.299473	 -0.001416
H	 0.857046	 -1.152781	 -0.871031
H	 0.857910	 -1.151798	 0.871202
C	 2.865541	 0.340116	 -1.368414
H	 1.983668	 1.315799	 0.326038
H	 2.877508	 -0.121757	 0.726177
C	 4.161222	 1.143991	 -1.369691
H	 2.178321	 0.762486	 -2.096004
H	 3.070565	 -0.674940	 -1.696612
H	 3.983286	 2.173732	 -1.078459
H	 4.616092	 1.152824	 -2.353318
H	 4.882329	 0.725349	 -0.675719
