12

H	 -1.260111	 -0.582579	 -0.755879
N	 -0.625934	 -0.663929	 -0.000707
C	 -0.917050	 -1.621913	 1.039779
C	 0.468494	 0.129045	 -0.002160
H	 -1.861293	 -1.396959	 1.521224
H	 -0.131529	 -1.573980	 1.774458
H	 -0.961929	 -2.628053	 0.640145
C	 1.785715	 -0.615093	 0.000603
O	 0.413285	 1.323206	 0.000532
H	 1.866994	 -1.243310	 -0.878792
H	 2.591506	 0.100263	 0.006422
H	 1.860358	 -1.250360	 0.875522
