25

H	 -3.085996	 1.046588	 -1.410460
C	 -2.441548	 1.528896	 -2.155905
C	 -1.459778	 2.527986	 -1.598627
O	 -2.547963	 1.251498	 -3.306329
C	 -0.617569	 1.949525	 -0.453060
H	 -0.836764	 2.884835	 -2.410551
H	 -2.039004	 3.372126	 -1.226365
C	 0.339954	 0.841438	 -0.898696
H	 -0.049284	 2.757559	 -0.002042
H	 -1.278097	 1.572519	 0.326252
C	 1.180775	 0.282413	 0.250794
H	 0.997163	 1.229553	 -1.674124
H	 -0.222109	 0.030944	 -1.358832
C	 2.148627	 -0.814315	 -0.201312
H	 1.731669	 1.097697	 0.712919
H	 0.520406	 -0.116078	 1.019886
C	 3.580890	 -0.659131	 0.322722
H	 2.166869	 -0.852443	 -1.289387
H	 1.762857	 -1.776509	 0.128956
C	 4.324889	 0.564933	 -0.213704
H	 4.142010	 -1.551473	 0.056605
H	 3.564836	 -0.624694	 1.410140
H	 4.342616	 0.565491	 -1.300421
H	 3.866655	 1.493402	 0.110242
H	 5.353900	 0.572371	 0.132816
