22

H	 3.350209	 -1.124104	 3.651338
C	 2.818657	 -1.392608	 2.746094
C	 1.546206	 -0.566957	 2.591757
H	 3.491571	 -1.234882	 1.909823
H	 2.597613	 -2.453588	 2.795874
C	 0.766782	 -0.912734	 1.331636
H	 1.787660	 0.489948	 2.571372
H	 0.909325	 -0.721847	 3.459494
N	 -0.421266	 -0.096941	 1.202178
H	 1.393295	 -0.734935	 0.462706
H	 0.535243	 -1.982067	 1.330839
C	 -1.215959	 -0.382435	 0.027143
H	 -0.985069	 -0.190318	 2.021157
C	 -2.451944	 0.502410	 -0.038737
H	 -0.599104	 -0.202048	 -0.848144
H	 -1.519233	 -1.432577	 -0.020860
C	 -3.752217	 -0.292550	 0.005776
H	 -2.407325	 1.093801	 -0.946480
H	 -2.431979	 1.206234	 0.790023
H	 -3.817783	 -0.982946	 -0.828547
H	 -4.612613	 0.364348	 -0.042306
H	 -3.830160	 -0.871666	 0.919868
