10

H	 2.454258	 0.709580	 0.569777
O	 1.558639	 0.823898	 0.827541
C	 0.700177	 0.619554	 -0.266242
C	 -0.713111	 0.588314	 0.266177
H	 0.923489	 -0.322547	 -0.757670
H	 0.798779	 1.422229	 -0.992443
O	 -1.421673	 -0.521378	 -0.196983
H	 -1.244794	 1.469161	 -0.069059
H	 -0.685100	 0.604721	 1.352683
H	 -0.933408	 -1.297830	 0.014544
