15

H	 -2.698799	 -0.000846	 0.036018
C	 -1.694291	 -0.000483	 0.434279
O	 -0.828718	 -0.000608	 -0.655022
H	 -1.576855	 0.881100	 1.056504
H	 -1.576401	 -0.881658	 1.057001
C	 0.428839	 -0.616144	 -0.522576
C	 1.314101	 0.076091	 0.507664
C	 0.323335	 -2.117532	 -0.279772
H	 0.879567	 -0.470180	 -1.496310
H	 1.336404	 1.144055	 0.328739
H	 2.327170	 -0.302300	 0.435163
H	 0.973587	 -0.095484	 1.522156
H	 -0.341382	 -2.570854	 -1.004819
H	 1.300409	 -2.575678	 -0.380785
H	 -0.043566	 -2.347299	 0.713773
