16

H	 3.189716	 0.262431	 0.648300
N	 2.334608	 -0.251539	 0.662909
C	 1.263552	 0.494993	 0.021953
H	 2.117613	 -0.435178	 1.620263
C	 -0.016533	 -0.325589	 -0.026925
H	 1.579603	 0.725047	 -0.990066
H	 1.059711	 1.448811	 0.510487
C	 -1.280353	 0.525521	 0.047747
H	 -0.016686	 -0.912532	 -0.939714
H	 -0.014099	 -1.037598	 0.796369
C	 -2.560681	 -0.301323	 -0.007747
H	 -1.279957	 1.241025	 -0.770189
H	 -1.270445	 1.110526	 0.963468
H	 -2.617064	 -0.872870	 -0.928010
H	 -3.439525	 0.331102	 0.043462
H	 -2.609427	 -1.002736	 0.818585
