17

O	 -0.642001	 -0.062350	 -0.277313
C	 0.485107	 0.171416	 -0.000134
C	 1.606966	 -0.836201	 0.000174
O	 0.914757	 1.370587	 0.351967
C	 2.988788	 -0.202529	 -0.000115
H	 1.465110	 -1.474645	 -0.864821
H	 1.465209	 -1.474077	 0.865596
H	 3.131767	 0.419673	 -0.873407
H	 3.750876	 -0.972315	 0.000098
H	 3.131883	 0.420264	 0.872742
C	 -0.033341	 2.427642	 0.397032
C	 0.693404	 3.681830	 0.822876
H	 -0.818484	 2.168171	 1.093144
H	 -0.482201	 2.541242	 -0.579669
H	 1.139407	 3.555914	 1.801446
H	 -0.003238	 4.510631	 0.867717
H	 1.477556	 3.931162	 0.119094
