27

H	 -5.582021	 -3.336259	 -1.662710
O	 -5.956371	 -3.961885	 -1.059779
C	 -4.950806	 -4.818617	 -0.581342
C	 -4.008294	 -4.144721	 0.409750
H	 -5.467471	 -5.636675	 -0.096047
H	 -4.383790	 -5.240878	 -1.410177
C	 -3.189995	 -2.998730	 -0.190216
H	 -4.594913	 -3.775089	 1.246779
H	 -3.333780	 -4.902421	 0.805083
C	 -2.215084	 -2.378882	 0.814848
H	 -3.865925	 -2.232647	 -0.559813
H	 -2.630501	 -3.365272	 -1.051003
C	 -1.309753	 -1.282496	 0.241564
H	 -2.776007	 -1.978344	 1.657334
H	 -1.585466	 -3.168964	 1.218645
C	 -2.037799	 -0.007733	 -0.193645
H	 -0.571570	 -1.019551	 0.996390
H	 -0.749320	 -1.683584	 -0.601573
C	 -3.489788	 0.042957	 0.286558
H	 -2.017067	 0.064384	 -1.280144
H	 -1.513726	 0.868678	 0.179924
C	 -4.216917	 1.317354	 -0.141063
H	 -4.025645	 -0.823308	 -0.095450
H	 -3.513059	 -0.038752	 1.371301
H	 -4.239342	 1.411634	 -1.223113
H	 -5.243387	 1.322503	 0.212445
H	 -3.726170	 2.201406	 0.256408
