15

H	 0.616325	 -0.921299	 2.584501
O	 0.490302	 -0.696621	 1.681344
C	 0.237312	 0.679014	 1.556281
C	 0.027642	 1.012027	 0.090274
H	 1.078985	 1.254196	 1.933797
H	 -0.634880	 0.958804	 2.140628
C	 -1.138737	 0.285728	 -0.581921
H	 0.943573	 0.775133	 -0.441194
H	 -0.114008	 2.086987	 0.008965
C	 -1.933983	 -0.631436	 0.343653
H	 -0.763151	 -0.285569	 -1.422081
H	 -1.808359	 1.035291	 -0.992333
H	 -2.789188	 -1.049673	 -0.174718
H	 -1.335629	 -1.461368	 0.700418
H	 -2.305435	 -0.092167	 1.209725
