16

H	 1.469870	 -0.241055	 2.045377
C	 1.767348	 -0.017584	 1.012312
C	 0.692262	 0.592428	 0.156232
O	 2.864886	 -0.261774	 0.647053
C	 -0.554654	 -0.292621	 0.086567
H	 1.100979	 0.775872	 -0.828723
H	 0.429779	 1.551627	 0.597727
C	 -1.846385	 0.513195	 -0.016346
H	 -0.473986	 -0.956115	 -0.769708
H	 -0.597929	 -0.929215	 0.966651
C	 -3.089953	 -0.365049	 -0.098564
H	 -1.798267	 1.154820	 -0.891143
H	 -1.925398	 1.173265	 0.842889
H	 -3.055079	 -1.012299	 -0.968245
H	 -3.988403	 0.236438	 -0.170014
H	 -3.183055	 -0.995885	 0.779079
