12

H	 -0.832346	 -1.188146	 -0.821264
N	 -0.626943	 -0.667432	 -0.000092
C	 -1.513373	 -0.800925	 1.133547
C	 0.469286	 0.129090	 0.000148
H	 -2.521161	 -0.491695	 0.877137
H	 -1.144580	 -0.169944	 1.925748
H	 -1.543021	 -1.826781	 1.485361
C	 1.788933	 -0.616240	 -0.000037
O	 0.411098	 1.327768	 -0.000049
H	 1.872803	 -1.245775	 -0.880381
H	 2.595421	 0.101576	 0.003713
H	 1.870096	 -1.252171	 0.875943
