10

H   -0.996493   -0.743733    1.271440
C   -0.247113   0.037112    1.209233
N   0.526300   -0.128137    0.000000
H   0.397975   -0.057351    2.073512
H   -0.763794   0.997171    1.271673
C   -0.247113   0.037112    -1.209233
H   1.296704   0.504427    0.000000
H   -0.996493   -0.743733    -1.271440
H   0.397975   -0.057351    -2.073512
H   -0.763794   0.997171    -1.271673
