16

H	 -3.135559	 0.401989	 1.398262
C	 -2.119616	 0.210130	 1.113368
C	 -1.728843	 -1.058559	 0.708945
C	 -1.182640	 1.216655	 1.142640
H	 -2.446240	 -1.856696	 0.679750
C	 -0.428242	 -1.308778	 0.343090
H	 -1.466089	 2.204683	 1.452714
C	 0.135254	 0.981227	 0.776391
H	 -0.116060	 -2.285324	 0.029131
C	 0.514407	 -0.286506	 0.374921
H	 0.840279	 1.785757	 0.810056
O	 1.760432	 -0.625184	 0.000000
C	 2.773565	 0.334879	 0.000000
H	 2.728295	 0.960928	 -0.884150
H	 3.706387	 -0.206610	 0.000000
H	 2.728295	 0.960928	 0.884150
