25

O	 2.913558	 1.071920	 -0.254828
C	 2.821797	 -0.111995	 -0.248795
C	 1.484256	 -0.820874	 -0.183177
C	 4.046032	 -0.997487	 -0.306903
C	 0.280243	 0.108462	 -0.123893
H	 1.420380	 -1.479889	 -1.046130
H	 1.505226	 -1.480159	 0.681641
C	 -1.042973	 -0.649159	 -0.058905
H	 0.290205	 0.758905	 -0.991038
H	 0.375231	 0.758733	 0.738231
C	 -2.258482	 0.271340	 0.000669
H	 -1.130260	 -1.301044	 -0.925335
H	 -1.045017	 -1.300888	 0.812018
C	 -2.305585	 1.289336	 -1.135201
H	 -2.264048	 0.796379	 0.952728
H	 -3.164383	 -0.329562	 -0.019005
C	 -3.572900	 2.137654	 -1.127623
H	 -1.437227	 1.939525	 -1.070796
H	 -2.226298	 0.769809	 -2.086371
H	 -3.663669	 2.697063	 -0.202494
H	 -3.574663	 2.849112	 -1.945453
H	 -4.458537	 1.518747	 -1.225834
H	 4.000158	 -1.642561	 -1.177433
H	 4.936135	 -0.389142	 -0.351903
H	 4.085665	 -1.638336	 0.567044
