20

O	 -2.440701	 -0.934798	 -0.415053
C	 -1.922978	 0.063265	 -0.045005
C	 -2.632749	 1.372204	 0.158357
O	 -0.637375	 0.157174	 0.243149
H	 -2.187724	 2.129143	 -0.474664
H	 -3.677681	 1.257276	 -0.079438
H	 -2.516788	 1.693160	 1.185542
C	 0.162530	 -1.009518	 0.097799
C	 1.587210	 -0.664190	 0.477086
H	 0.096803	 -1.356267	 -0.924704
H	 -0.233803	 -1.785900	 0.736810
C	 2.378916	 -1.829457	 1.064552
H	 1.541831	 0.145692	 1.200114
H	 2.098774	 -0.273120	 -0.397103
C	 3.798157	 -1.436050	 1.460284
H	 1.854460	 -2.213295	 1.935594
H	 2.414618	 -2.639089	 0.344785
H	 4.335687	 -2.279476	 1.877513
H	 3.794656	 -0.645764	 2.203808
H	 4.358401	 -1.078930	 0.602607
