15

H	 2.342730	 0.877684	 -1.045694
C	 2.360424	 0.000000	 -0.411793
C	 1.173749	 0.000000	 0.526870
H	 3.286567	 0.000000	 0.151574
H	 2.342730	 -0.877684	 -1.045694
O	 0.000000	 0.000000	 -0.223739
H	 1.203779	 0.876757	 1.172538
H	 1.203779	 -0.876757	 1.172538
C	 -1.173749	 0.000000	 0.526870
C	 -0.915768	 -0.692323	 1.847256
H	 -1.965587	 -0.511676	 -0.018724
H	 -1.508250	 1.022669	 0.696428
H	 -0.597146	 -1.714221	 1.683926
H	 -1.817318	 -0.704109	 2.449081
H	 -0.139325	 -0.178254	 2.399834
