9

H	 1.199958	 -1.507899	 0.584503
C	 0.591985	 -0.612442	 0.725836
N	 -0.537714	 -0.645117	 0.000000
O	 0.931765	 0.267873	 1.451310
C	 -1.522613	 0.412524	 0.000000
H	 -0.693735	 -1.444172	 -0.563162
H	 -2.150256	 0.356137	 -0.880771
H	 -1.005621	 1.357208	 0.000000
H	 -2.150256	 0.356137	 0.880771
