15

H	 1.897814	 -1.455566	 0.938157
O	 1.393245	 -0.919293	 0.355169
C	 0.845001	 0.169365	 1.052500
C	 0.027642	 1.012027	 0.090274
H	 1.635319	 0.782755	 1.477846
H	 0.227044	 -0.179679	 1.875154
C	 -1.138737	 0.285728	 -0.581921
H	 0.696858	 1.388917	 -0.676285
H	 -0.343917	 1.876067	 0.635796
C	 -1.933983	 -0.631436	 0.343653
H	 -0.763151	 -0.285569	 -1.422081
H	 -1.808359	 1.035291	 -0.992333
H	 -2.789188	 -1.049673	 -0.174718
H	 -1.335629	 -1.461368	 0.700418
H	 -2.305435	 -0.092167	 1.209725
