25

H	 -3.258660	 -0.290394	 1.471450
C	 -3.307964	 -0.275695	 0.374072
C	 -2.653809	 0.914422	 -0.273689
O	 -3.855140	 -1.148880	 -0.205112
C	 -1.386353	 1.365558	 0.458232
H	 -2.452555	 0.675286	 -1.309857
H	 -3.384581	 1.719916	 -0.252348
C	 -0.238333	 0.362264	 0.370858
H	 -1.068340	 2.314425	 0.040073
H	 -1.623143	 1.559883	 1.501478
C	 1.020918	 0.830389	 1.095376
H	 -0.006703	 0.178481	 -0.674933
H	 -0.553091	 -0.593897	 0.780872
C	 2.171241	 -0.169683	 0.996066
H	 1.325333	 1.789201	 0.687509
H	 0.788027	 1.004005	 2.143668
C	 3.428750	 0.218490	 1.775741
H	 2.430224	 -0.315750	 -0.050059
H	 1.825225	 -1.133518	 1.358831
C	 4.146025	 1.460940	 1.253324
H	 4.119633	 -0.618376	 1.748762
H	 3.171427	 0.363883	 2.821662
H	 4.409980	 1.346883	 0.206751
H	 3.535722	 2.351313	 1.345256
H	 5.061626	 1.636683	 1.806275
