14

H	 -2.816458	 -0.841657	 -0.064679
N	 -1.878861	 -0.711874	 0.250184
C	 -1.341419	 0.551458	 -0.220231
H	 -1.333674	 -1.468530	 -0.105118
C	 0.082190	 0.731516	 0.254705
H	 -1.357065	 0.652078	 -1.304747
H	 -1.939897	 1.357530	 0.189797
O	 0.675474	 1.758734	 -0.480512
H	 0.089469	 0.978361	 1.315454
H	 0.633547	 -0.195782	 0.116679
C	 2.014768	 1.979022	 -0.185577
H	 2.362931	 2.791044	 -0.807500
H	 2.152055	 2.254825	 0.857869
H	 2.617486	 1.097333	 -0.390314
