29

O	 2.926848	 0.563224	 -1.264833
C	 2.529630	 -0.170398	 -0.425191
C	 1.246364	 -0.005813	 0.348416
O	 3.180404	 -1.259170	 -0.048121
C	 0.453207	 1.232821	 -0.049003
H	 0.676053	 -0.916048	 0.207810
H	 1.509428	 0.020140	 1.401247
C	 -0.998367	 1.217982	 0.432195
H	 0.481498	 1.345443	 -1.127236
H	 0.951413	 2.105557	 0.354893
C	 -1.882951	 0.151251	 -0.211235
H	 -1.429490	 2.193659	 0.228843
H	 -1.019755	 1.099323	 1.513279
C	 -1.242540	 -1.234267	 -0.211356
H	 -2.831456	 0.107651	 0.319151
H	 -2.118301	 0.427902	 -1.234764
C	 -0.030043	 -1.343297	 -1.131539
H	 -1.983988	 -1.972284	 -0.507881
H	 -0.946098	 -1.492977	 0.802576
C	 0.603045	 -2.730726	 -1.127595
H	 -0.324742	 -1.085275	 -2.145096
H	 0.713169	 -0.608174	 -0.834746
H	 1.459969	 -2.773726	 -1.790027
H	 -0.105251	 -3.484937	 -1.454080
H	 0.939909	 -3.004404	 -0.133195
C	 4.406786	 -1.537903	 -0.692491
H	 4.258439	 -1.670699	 -1.753904
H	 4.774286	 -2.450098	 -0.251186
H	 5.112365	 -0.736041	 -0.533014
