27

H	 2.614283	 2.028610	 0.296620
O	 3.358864	 1.662087	 -0.142800
C	 3.565468	 0.338079	 0.273842
C	 3.820915	 0.205250	 1.767760
H	 2.663349	 -0.198174	 0.011937
H	 4.382360	 -0.112903	 -0.286293
C	 5.120299	 0.852300	 2.241866
H	 2.980466	 0.638463	 2.301735
H	 3.837195	 -0.854455	 2.010982
C	 5.358936	 0.670280	 3.740118
H	 5.101002	 1.910862	 2.005058
H	 5.957178	 0.423929	 1.692850
C	 6.683340	 1.235170	 4.256942
H	 4.537080	 1.122460	 4.289948
H	 5.326458	 -0.391523	 3.968127
C	 6.801617	 2.757324	 4.204007
H	 6.811838	 0.914471	 5.287072
H	 7.504606	 0.791087	 3.698850
C	 8.097375	 3.277574	 4.821066
H	 5.955077	 3.200317	 4.724195
H	 6.740849	 3.101333	 3.175918
C	 8.220403	 4.796712	 4.766501
H	 8.159872	 2.948485	 5.854686
H	 8.944117	 2.829403	 4.308002
H	 7.404768	 5.274772	 5.298887
H	 9.148748	 5.132248	 5.214493
H	 8.199438	 5.154962	 3.742504
