14

O	 -0.694481	 1.313155	 -0.204815
C	 -0.862519	 0.151932	 -0.046791
C	 -2.171428	 -0.477048	 0.339095
O	 0.085519	 -0.757083	 -0.192238
H	 -2.467997	 -1.191667	 -0.417688
H	 -2.923379	 0.287970	 0.444097
H	 -2.053854	 -1.015120	 1.270901
C	 0.145148	 -1.837954	 0.731150
C	 -0.775662	 -2.970693	 0.327532
H	 -0.094083	 -1.475406	 1.718643
H	 1.176761	 -2.156107	 0.713658
H	 -0.653835	 -3.800225	 1.014908
H	 -1.809979	 -2.656297	 0.354469
H	 -0.539596	 -3.318429	 -0.670940
