16

O	 -1.510770	 1.240811	 -0.054933
C	 -1.081510	 0.147522	 0.122720
C	 0.327029	 -0.064006	 0.641890
C	 -1.903028	 -1.084121	 -0.174656
C	 1.349460	 -0.017068	 -0.500215
H	 0.399029	 -1.014606	 1.159950
H	 0.538021	 0.726928	 1.350471
C	 1.631599	 -1.395893	 -1.085865
H	 0.991088	 0.641335	 -1.286289
H	 2.268041	 0.418277	 -0.124703
H	 2.364336	 -1.336019	 -1.881818
H	 0.731384	 -1.840642	 -1.496428
H	 2.018195	 -2.068902	 -0.328585
H	 -1.341891	 -1.779207	 -0.789259
H	 -2.820449	 -0.808163	 -0.671328
H	 -2.133314	 -1.593056	 0.755831
