16

H	 -3.301617	 0.570527	 0.000000
C	 -2.250981	 0.344174	 0.000000
C	 -1.813665	 -0.976045	 0.000000
C	 -1.315303	 1.358057	 0.000000
H	 -2.528860	 -1.779366	 0.000000
C	 -0.467298	 -1.270142	 0.000000
H	 -1.635074	 2.385107	 0.000000
C	 0.047081	 1.078114	 0.000000
H	 -0.115948	 -2.285222	 0.000000
C	 0.472063	 -0.241155	 0.000000
H	 0.749976	 1.888426	 0.000000
O	 1.765256	 -0.628444	 0.000000
C	 2.102966	 -1.920219	 0.415139
H	 1.816452	 -2.093472	 1.447237
H	 3.176690	 -1.994223	 0.328823
H	 1.642779	 -2.673383	 -0.215974
