20

O	 0.609730	 0.521113	 0.991038
C	 1.121787	 0.124983	 0.000110
C	 0.688700	 0.461293	 -1.403740
O	 2.167739	 -0.685178	 -0.000678
C	 -0.513562	 1.392053	 -1.468371
H	 1.546734	 0.891849	 -1.909584
H	 0.487261	 -0.476746	 -1.910660
C	 -0.924481	 1.711999	 -2.902626
H	 -0.284810	 2.309880	 -0.938460
H	 -1.345447	 0.939824	 -0.940165
C	 -2.127233	 2.646043	 -2.979051
H	 -0.085909	 2.161795	 -3.427716
H	 -1.152272	 0.788559	 -3.428560
H	 -1.918500	 3.592269	 -2.491535
H	 -2.396162	 2.855616	 -4.007853
H	 -2.992625	 2.209052	 -2.492517
C	 3.449556	 -0.089977	 -0.000570
H	 3.585694	 0.522473	 -0.879546
H	 4.155805	 -0.904274	 -0.001389
H	 3.586173	 0.521118	 0.879272
