25

H	 -5.452042	 -0.062286	 -3.695622
C	 -4.576447	 0.565026	 -3.479525
C	 -3.875423	 0.250527	 -2.185869
O	 -4.257996	 1.416534	 -4.235058
C	 -3.553018	 1.503658	 -1.366484
H	 -4.483789	 -0.447268	 -1.625237
H	 -2.947600	 -0.252130	 -2.450036
C	 -4.789956	 2.214817	 -0.822038
H	 -2.909398	 1.217747	 -0.541653
H	 -2.973897	 2.193035	 -1.976052
C	 -5.641798	 2.853761	 -1.915610
H	 -4.477506	 2.978303	 -0.114528
H	 -5.398919	 1.513684	 -0.257234
C	 -6.900381	 3.527547	 -1.372262
H	 -5.037082	 3.575553	 -2.455684
H	 -5.927719	 2.092630	 -2.638262
C	 -7.827821	 4.111512	 -2.439380
H	 -6.614724	 4.314215	 -0.677756
H	 -7.459838	 2.800038	 -0.790848
C	 -7.244121	 5.287623	 -3.218572
H	 -8.743922	 4.435874	 -1.955707
H	 -8.114795	 3.326049	 -3.133643
H	 -6.941812	 6.086551	 -2.549005
H	 -6.377675	 4.999038	 -3.801388
H	 -7.976863	 5.694192	 -3.906144
