20

O	 1.214711	 1.306902	 -0.000018
C	 1.122059	 0.121804	 -0.000188
C	 -0.170150	 -0.657997	 -0.000612
O	 2.172624	 -0.688929	 0.000216
C	 -1.412532	 0.227344	 -0.000452
H	 -0.153702	 -1.313099	 -0.867402
H	 -0.153924	 -1.313811	 0.865644
C	 -1.561173	 1.020333	 1.298948
H	 -2.292015	 -0.389250	 -0.158011
H	 -1.367067	 0.908782	 -0.844300
C	 -2.802759	 1.911064	 1.307107
H	 -1.605438	 0.332848	 2.141255
H	 -0.676197	 1.634401	 1.453249
H	 -3.707758	 1.322227	 1.189200
H	 -2.884674	 2.461725	 2.238953
H	 -2.771581	 2.633466	 0.496673
C	 3.452279	 -0.082609	 0.000533
H	 3.583069	 0.529321	 -0.880332
H	 4.163299	 -0.894027	 0.001117
H	 3.582335	 0.529955	 0.881077
