16

H	 -3.117913	 1.835751	 0.020990
C	 -2.471384	 2.181662	 0.824252
O	 -1.130473	 2.061050	 0.485206
H	 -2.673446	 3.226903	 1.007362
H	 -2.708860	 1.617007	 1.724060
C	 -0.718530	 0.758693	 0.228682
C	 0.718529	 0.758687	 -0.228709
H	 -0.801900	 0.152038	 1.130341
H	 -1.338562	 0.303277	 -0.540465
O	 1.401606	 -0.295166	 0.366636
H	 0.748705	 0.673477	 -1.312803
H	 1.176496	 1.708671	 0.046552
C	 2.714315	 -0.441627	 -0.061017
H	 2.765292	 -0.641548	 -1.128869
H	 3.305661	 0.447341	 0.150952
H	 3.143725	 -1.278506	 0.470147
