9

H	 2.002517	 0.012975	 0.445350
C	 1.165109	 0.014290	 -0.236894
O	 -0.000000	 0.000000	 0.518769
H	 1.223976	 0.903056	 -0.861783
H	 1.234799	 -0.861712	 -0.878469
C	 -1.165153	 0.000000	 -0.236961
H	 -1.229451	 0.882440	 -0.870223
H	 -2.002557	 0.000000	 0.445289
H	 -1.229451	 -0.882440	 -0.870223
