27

H	 2.614283	 2.028610	 0.296620
O	 3.358864	 1.662087	 -0.142800
C	 3.565468	 0.338079	 0.273842
C	 2.533667	 -0.637565	 -0.272227
H	 4.548038	 0.064914	 -0.086598
H	 3.593945	 0.282242	 1.360360
C	 1.114816	 -0.402372	 0.240993
H	 2.544552	 -0.580764	 -1.356576
H	 2.850574	 -1.642962	 -0.005497
C	 0.113298	 -1.420414	 -0.302504
H	 0.796373	 0.598427	 -0.031033
H	 1.113377	 -0.446476	 1.328807
C	 0.655372	 -2.842904	 -0.453940
H	 -0.763285	 -1.437067	 0.340577
H	 -0.232068	 -1.079483	 -1.274593
C	 0.990180	 -3.550342	 0.857996
H	 -0.084199	 -3.434612	 -0.986335
H	 1.538964	 -2.824203	 -1.088031
C	 1.431947	 -4.998130	 0.660097
H	 0.118759	 -3.528455	 1.508853
H	 1.775041	 -3.013570	 1.382278
C	 1.770598	 -5.706272	 1.967668
H	 0.646176	 -5.546015	 0.147297
H	 2.297386	 -5.022375	 0.003218
H	 0.914871	 -5.727225	 2.634399
H	 2.077305	 -6.731010	 1.791744
H	 2.579973	 -5.203845	 2.487121
