15

H	 -2.698799	 -0.000846	 0.036018
C	 -1.694291	 -0.000483	 0.434279
O	 -0.828718	 -0.000608	 -0.655022
H	 -1.576855	 0.881100	 1.056504
H	 -1.576401	 -0.881658	 1.057001
C	 0.557892	 0.000078	 -0.420099
C	 1.350163	 -0.575005	 -1.588799
C	 1.077441	 1.365625	 0.015331
H	 0.667246	 -0.677143	 0.417774
H	 0.931807	 -1.525474	 -1.896443
H	 2.379562	 -0.736856	 -1.290656
H	 1.359080	 0.089843	 -2.444650
H	 0.470013	 1.760944	 0.820190
H	 2.096975	 1.274362	 0.371692
H	 1.079015	 2.081977	 -0.797921
