22

O	 3.821229	 2.068189	 -1.274797
C	 2.710912	 1.920052	 -0.878967
C	 1.614583	 1.415501	 -1.796322
C	 2.337014	 2.206198	 0.555986
C	 1.628282	 -0.116043	 -1.880142
H	 1.790745	 1.834650	 -2.778866
H	 0.645640	 1.757210	 -1.448111
C	 1.630207	 -0.772146	 -0.501001
H	 0.763664	 -0.432694	 -2.449701
H	 2.505042	 -0.445048	 -2.432723
C	 2.907848	 -0.545876	 0.309149
H	 1.461560	 -1.840214	 -0.613999
H	 0.787571	 -0.389819	 0.068555
C	 3.373802	 0.906639	 0.372125
H	 3.699140	 -1.146831	 -0.127906
H	 2.764321	 -0.923458	 1.318191
H	 3.519798	 1.311927	 -0.623875
H	 4.316899	 0.983758	 0.900700
H	 2.661122	 1.540651	 0.885346
H	 1.676073	 3.066519	 0.587658
H	 3.222741	 2.410884	 1.137502
H	 1.795336	 1.370417	 0.984523
