14

O	 -0.694481	 1.313155	 -0.204815
C	 -0.862519	 0.151932	 -0.046791
C	 -2.171428	 -0.477048	 0.339095
O	 0.085519	 -0.757083	 -0.192238
H	 -2.467997	 -1.191667	 -0.417688
H	 -2.923379	 0.287970	 0.444097
H	 -2.053854	 -1.015120	 1.270901
C	 -0.177444	 -1.897079	 -1.002016
C	 0.092477	 -1.618303	 -2.466026
H	 -1.196853	 -2.214812	 -0.848178
H	 0.488926	 -2.659055	 -0.626390
H	 -0.053861	 -2.525457	 -3.041445
H	 -0.581088	 -0.862533	 -2.846165
H	 1.112996	 -1.284605	 -2.610176
