13

H	 -3.680713	 0.142070	 -1.719463
C	 -2.987901	 -0.507343	 -1.224910
C	 -2.105997	 -0.000418	 -0.398703
H	 -3.036258	 -1.560793	 -1.419081
O	 -1.189946	 -0.765863	 0.237511
H	 -2.054186	 1.052689	 -0.190355
C	 0.026572	 -0.995256	 -0.379403
C	 1.057223	 0.049888	 -0.004615
H	 -0.054361	 -1.010670	 -1.459674
H	 0.397526	 -1.952058	 -0.044198
F	 2.203233	 -0.234060	 -0.590375
F	 0.698147	 1.254887	 -0.392621
F	 1.266440	 0.094219	 1.288722
