27

H	 0.449133	 -0.873041	 -4.537049
O	 0.369501	 -1.694251	 -5.000024
C	 0.845843	 -2.741027	 -4.192924
C	 -0.090563	 -3.084918	 -3.039837
H	 0.946947	 -3.595960	 -4.849081
H	 1.839239	 -2.506772	 -3.812044
C	 -0.266526	 -1.954698	 -2.022730
H	 -1.058312	 -3.359299	 -3.451595
H	 0.301538	 -3.966919	 -2.536152
C	 -1.168595	 -2.349618	 -0.850071
H	 -0.682597	 -1.085057	 -2.523703
H	 0.709557	 -1.658230	 -1.638402
C	 -1.309753	 -1.282496	 0.241564
H	 -2.155359	 -2.609331	 -1.229140
H	 -0.770523	 -3.255079	 -0.396882
C	 -2.037799	 -0.007733	 -0.193645
H	 -1.848099	 -1.720170	 1.079682
H	 -0.322271	 -1.022645	 0.619975
C	 -3.489788	 0.042957	 0.286558
H	 -2.017067	 0.064384	 -1.280144
H	 -1.513726	 0.868678	 0.179924
C	 -4.216917	 1.317354	 -0.141063
H	 -4.025645	 -0.823308	 -0.095450
H	 -3.513059	 -0.038752	 1.371301
H	 -4.239342	 1.411634	 -1.223113
H	 -5.243387	 1.322503	 0.212445
H	 -3.726170	 2.201406	 0.256408
