8

H   1.651322   -0.822465    0.000000
O   0.729993   -1.034364    0.000000
C   0.037305   0.100061    0.000000
C   -1.441964   -0.144562    0.000000
O   0.559332   1.160383    0.000000
H   -1.712516   -0.722838    -0.873995
H   -1.963806   0.797991    0.000000
H   -1.712516   -0.722838    0.873995
