29

O	 3.225979	 0.970355	 -0.599647
C	 2.701189	 0.057885	 -0.047330
C	 1.245376	 -0.013843	 0.345420
O	 3.347903	 -1.046386	 0.304773
C	 0.455112	 1.231400	 -0.050772
H	 0.838542	 -0.913825	 -0.103701
H	 1.208210	 -0.175333	 1.419774
C	 -0.998893	 1.219485	 0.433193
H	 0.482531	 1.345121	 -1.130325
H	 0.957290	 2.103070	 0.354729
C	 -1.971054	 2.035221	 -0.423889
H	 -1.019226	 1.609581	 1.448148
H	 -1.350817	 0.190951	 0.498598
C	 -3.384289	 2.081955	 0.160561
H	 -1.591170	 3.050484	 -0.527569
H	 -2.020431	 1.623359	 -1.429326
C	 -4.365658	 2.890087	 -0.690302
H	 -3.345344	 2.505695	 1.162641
H	 -3.760605	 1.066523	 0.274503
C	 -5.773696	 2.935009	 -0.097756
H	 -3.990641	 3.904788	 -0.806002
H	 -4.409238	 2.465403	 -1.691064
H	 -6.445764	 3.514578	 -0.723081
H	 -5.769036	 3.386950	 0.890132
H	 -6.190517	 1.936402	 -0.001220
C	 4.728119	 -1.109107	 -0.004993
H	 4.882018	 -1.033965	 -1.071845
H	 5.068212	 -2.067527	 0.355250
H	 5.265056	 -0.311663	 0.488280
