21

H	 -0.758702	 3.342132	 3.173655
O	 -0.076605	 2.761498	 2.891162
C	 -0.535214	 1.952907	 1.840317
C	 0.590412	 1.032704	 1.413332
H	 -1.393625	 1.365199	 2.158913
H	 -0.852045	 2.565622	 0.998873
C	 0.196029	 0.106276	 0.266738
H	 0.901977	 0.448722	 2.273629
H	 1.441562	 1.641425	 1.125375
C	 1.330220	 -0.826136	 -0.155230
H	 -0.671027	 -0.476587	 0.562035
H	 -0.112173	 0.701218	 -0.590372
C	 2.719700	 -0.407669	 0.328325
H	 1.339388	 -0.911200	 -1.239363
H	 1.119001	 -1.821953	 0.224128
C	 3.241564	 0.893452	 -0.276737
H	 3.418299	 -1.204729	 0.093035
H	 2.711776	 -0.323368	 1.411960
H	 3.254204	 0.841071	 -1.360784
H	 2.634460	 1.745075	 0.005842
H	 4.254264	 1.092401	 0.054971
