17

O	 -0.541282	 0.049697	 -0.577679
C	 0.485107	 0.171416	 -0.000134
C	 1.606966	 -0.836201	 0.000174
O	 0.786686	 1.228112	 0.734052
C	 2.988788	 -0.202529	 -0.000115
H	 1.465110	 -1.474645	 -0.864821
H	 1.465209	 -1.474077	 0.865596
H	 3.131767	 0.419673	 -0.873407
H	 3.750876	 -0.972315	 0.000098
H	 3.131883	 0.420264	 0.872742
C	 -0.177947	 2.266774	 0.828673
C	 0.394221	 3.348998	 1.714056
H	 -1.093234	 1.862314	 1.237339
H	 -0.394926	 2.638540	 -0.162807
H	 0.608363	 2.964937	 2.703507
H	 -0.318815	 4.159562	 1.807859
H	 1.310602	 3.745639	 1.295378
