22

H	 -3.268214	 -0.875720	 0.463107
C	 -2.806015	 0.000007	 0.024886
N	 -1.391133	 0.000016	 0.301321
H	 -3.029448	 0.000055	 -1.045738
H	 -3.268126	 0.875758	 0.463150
C	 -0.685980	 -1.025011	 -0.437363
C	 -1.106918	 -0.097762	 1.716663
H	 -1.036182	 -2.025061	 -0.165135
H	 -0.876447	 -0.888605	 -1.495285
C	 0.807255	 -0.938450	 -0.182860
H	 -1.604678	 0.715568	 2.231267
H	 -1.485811	 -1.034604	 2.135728
C	 0.386317	 -0.011201	 1.971165
H	 1.305016	 -1.751781	 -0.697464
H	 1.186148	 -0.001608	 -0.601925
N	 1.091470	 -1.036228	 1.232482
H	 0.576785	 -0.147607	 3.029088
H	 0.736519	 0.988849	 1.698938
C	 2.506352	 -1.036219	 1.508917
H	 2.985073	 -1.854843	 0.986188
H	 2.675591	 -1.173254	 2.569644
H	 2.998253	 -0.107739	 1.205410
