15

H	 -3.162190	 0.493205	 -0.000107
C	 -2.363908	 -0.234727	 0.000005
O	 -1.158738	 0.454634	 -0.000087
H	 -2.464314	 -0.863616	 -0.882153
H	 -2.464327	 -0.863359	 0.882345
C	 -0.028611	 -0.359694	 0.000037
C	 1.212847	 0.509314	 -0.000053
H	 -0.034155	 -1.007047	 -0.877198
H	 -0.034195	 -1.006836	 0.877430
C	 1.786331	 0.705617	 1.398851
H	 1.953910	 0.052915	 -0.646931
H	 0.962812	 1.468764	 -0.439245
H	 2.066204	 -0.241530	 1.847928
H	 2.671340	 1.329249	 1.369493
H	 1.068604	 1.184044	 2.056912
