29

O	 3.219313	 0.959291	 -0.614106
C	 2.698710	 0.058177	 -0.050237
C	 1.246364	 -0.005813	 0.348416
O	 3.344101	 -1.038700	 0.312317
C	 0.453207	 1.232821	 -0.049003
H	 0.839270	 -0.907818	 -0.092281
H	 1.216683	 -0.160521	 1.422434
C	 -0.998367	 1.217982	 0.432195
H	 0.481498	 1.345443	 -1.127236
H	 0.951413	 2.105557	 0.354893
C	 -1.882951	 0.151251	 -0.211235
H	 -1.429490	 2.193659	 0.228843
H	 -1.019755	 1.099323	 1.513279
C	 -3.342450	 0.243269	 0.226009
H	 -1.826223	 0.246578	 -1.293162
H	 -1.508033	 -0.839650	 0.027695
C	 -3.619416	 1.402349	 1.179212
H	 -3.633620	 -0.689441	 0.703096
H	 -3.974977	 0.344437	 -0.652934
C	 -5.079077	 1.486552	 1.612891
H	 -2.988249	 1.302521	 2.058065
H	 -3.331530	 2.335627	 0.702797
H	 -5.241246	 2.319036	 2.287914
H	 -5.388086	 0.581120	 2.124571
H	 -5.734079	 1.621368	 0.758488
C	 4.720529	 -1.114346	 0.001449
H	 4.874321	 -1.055557	 -1.065852
H	 5.057824	 -2.067950	 0.373977
H	 5.264321	 -0.313596	 0.480350
