20

O	 -2.440701	 -0.934798	 -0.415053
C	 -1.922978	 0.063265	 -0.045005
C	 -2.632749	 1.372204	 0.158357
O	 -0.637375	 0.157174	 0.243149
H	 -2.187724	 2.129143	 -0.474664
H	 -3.677681	 1.257276	 -0.079438
H	 -2.516788	 1.693160	 1.185542
C	 0.162530	 -1.009518	 0.097799
C	 1.587210	 -0.664190	 0.477086
H	 0.096803	 -1.356267	 -0.924704
H	 -0.233803	 -1.785900	 0.736810
C	 2.605292	 -1.751237	 0.143021
H	 1.599165	 -0.471126	 1.546347
H	 1.865355	 0.265204	 -0.010460
C	 4.022669	 -1.379368	 0.565364
H	 2.313165	 -2.675865	 0.633760
H	 2.584550	 -1.948079	 -0.922655
H	 4.723394	 -2.168958	 0.320583
H	 4.081683	 -1.204831	 1.634684
H	 4.355280	 -0.475878	 0.065272
