11

O	 -0.294657	 1.318860	 -0.000872
C	 -0.448701	 0.145766	 -0.000187
C	 -1.780717	 -0.548056	 0.000195
O	 0.550774	 -0.719832	 0.000412
H	 -1.859358	 -1.183215	 -0.872613
H	 -2.570205	 0.185592	 -0.001342
H	 -1.860202	 -1.180292	 0.875064
C	 1.863235	 -0.193988	 0.000410
H	 2.031533	 0.409222	 -0.879273
H	 2.524519	 -1.045097	 0.000793
H	 2.031322	 0.409868	 0.879686
