20

O	 -2.440701	 -0.934798	 -0.415053
C	 -1.922978	 0.063265	 -0.045005
C	 -2.632749	 1.372204	 0.158357
O	 -0.637375	 0.157174	 0.243149
H	 -2.187724	 2.129143	 -0.474664
H	 -3.677681	 1.257276	 -0.079438
H	 -2.516788	 1.693160	 1.185542
C	 0.162530	 -1.009518	 0.097799
C	 1.587210	 -0.664190	 0.477086
H	 0.096803	 -1.356267	 -0.924704
H	 -0.233803	 -1.785900	 0.736810
C	 2.131904	 0.586636	 -0.207390
H	 2.206548	 -1.518852	 0.218809
H	 1.646357	 -0.551030	 1.555295
C	 3.577047	 0.885436	 0.177182
H	 2.063440	 0.461605	 -1.284784
H	 1.506869	 1.435546	 0.044659
H	 3.939422	 1.774651	 -0.325179
H	 4.233433	 0.063903	 -0.090459
H	 3.671654	 1.048019	 1.245655
