16

O	 -2.081319	 -0.951530	 -0.502732
N	 -1.613558	 0.006676	 0.014756
C	 -0.329345	 -0.171618	 0.743966
O	 -2.068523	 1.100482	 -0.024385
C	 0.835904	 0.041968	 -0.213982
H	 -0.346048	 -1.174374	 1.137184
H	 -0.333613	 0.555559	 1.538590
C	 2.177039	 -0.130175	 0.494460
H	 0.754456	 -0.665923	 -1.030569
H	 0.765464	 1.037260	 -0.637266
C	 2.104542	 0.232397	 1.973570
H	 2.924849	 0.488271	 0.006872
H	 2.510920	 -1.158320	 0.390304
H	 1.805290	 1.265829	 2.108348
H	 1.386591	 -0.391527	 2.494127
H	 3.067251	 0.100563	 2.452081
