14

H	 -2.816458	 -0.841657	 -0.064679
N	 -1.878861	 -0.711874	 0.250184
C	 -1.341419	 0.551458	 -0.220231
H	 -1.333674	 -1.468530	 -0.105118
C	 0.082190	 0.731516	 0.254705
H	 -1.357065	 0.652078	 -1.304747
H	 -1.939897	 1.357530	 0.189797
O	 0.206689	 0.170853	 1.526658
H	 0.767194	 0.244034	 -0.437612
H	 0.325774	 1.791053	 0.285971
C	 1.458221	 0.331720	 2.107183
H	 1.437234	 -0.140606	 3.078705
H	 2.237311	 -0.135595	 1.508576
H	 1.705929	 1.382997	 2.233757
