16

H	 1.227733	 -2.309373	 -0.746559
C	 0.500940	 -2.574540	 0.032615
C	 -0.788593	 -1.802360	 -0.007909
O	 0.763043	 -3.411247	 0.825620
C	 -0.554654	 -0.292621	 0.086567
H	 -1.424119	 -2.153737	 0.794261
H	 -1.276804	 -2.033496	 -0.952422
C	 -1.846385	 0.513195	 -0.016346
H	 -0.061927	 -0.066023	 1.027743
H	 0.126695	 0.019399	 -0.700885
C	 -3.089953	 -0.365049	 -0.098564
H	 -1.798267	 1.154820	 -0.891143
H	 -1.925398	 1.173265	 0.842889
H	 -3.055079	 -1.012299	 -0.968245
H	 -3.988403	 0.236438	 -0.170014
H	 -3.183055	 -0.995885	 0.779079
