22

O	 2.804462	 -3.342750	 1.839931
C	 2.647941	 -3.254496	 0.665562
C	 1.257589	 -3.223231	 0.062243
C	 3.817957	 -3.149921	 -0.283592
C	 0.675207	 -1.804558	 0.094489
H	 0.631921	 -3.886096	 0.646418
H	 1.282177	 -3.588752	 -0.958862
C	 1.630207	 -0.772146	 -0.501001
H	 -0.262709	 -1.810143	 -0.446353
H	 0.443858	 -1.526541	 1.119907
C	 2.907848	 -0.545876	 0.309149
H	 1.106327	 0.173506	 -0.616202
H	 1.907648	 -1.090027	 -1.502291
C	 3.373802	 0.906639	 0.372125
H	 3.699140	 -1.146831	 -0.127906
H	 2.764321	 -0.923458	 1.318191
H	 3.519798	 1.311927	 -0.623875
H	 4.316899	 0.983758	 0.900700
H	 2.661122	 1.540651	 0.885346
H	 3.870775	 -4.051582	 -0.885437
H	 4.736752	 -3.032106	 0.270037
H	 3.684808	 -2.317359	 -0.965281
