27

H	 0.372786	 -3.063731	 -4.270100
O	 1.311417	 -3.054546	 -4.296892
C	 1.799065	 -1.830421	 -3.814203
C	 1.658666	 -1.673376	 -2.307448
H	 2.845903	 -1.802073	 -4.084955
H	 1.312159	 -1.000761	 -4.323160
C	 0.214485	 -1.611354	 -1.815164
H	 2.174607	 -2.497936	 -1.824682
H	 2.177171	 -0.762872	 -2.016704
C	 -0.338342	 -2.982965	 -1.430583
H	 -0.409232	 -1.174054	 -2.587659
H	 0.155939	 -0.948827	 -0.953237
C	 -1.757796	 -2.970948	 -0.860266
H	 -0.305951	 -3.636995	 -2.298582
H	 0.324098	 -3.427465	 -0.692977
C	 -1.903160	 -2.286830	 0.497892
H	 -2.406698	 -2.467578	 -1.571653
H	 -2.124272	 -3.992620	 -0.789297
C	 -3.350530	 -2.212722	 0.977514
H	 -1.494916	 -1.280298	 0.437073
H	 -1.313394	 -2.809723	 1.244727
C	 -3.498856	 -1.533610	 2.334974
H	 -3.945468	 -1.679113	 0.241384
H	 -3.762539	 -3.216954	 1.030708
H	 -3.124883	 -0.515498	 2.306171
H	 -4.537189	 -1.495372	 2.644018
H	 -2.945433	 -2.065648	 3.101794
