25

O	 2.595335	 1.775341	 0.472827
C	 1.997853	 1.469326	 1.452358
C	 0.728090	 0.644069	 1.402518
C	 2.470359	 1.887518	 2.826431
C	 0.288398	 0.247429	 0.000314
H	 0.885782	 -0.236886	 2.020676
H	 -0.051614	 1.212327	 1.904663
C	 -0.993089	 -0.581367	 -0.000217
H	 1.086607	 -0.307973	 -0.478753
H	 0.148515	 1.142576	 -0.594899
C	 -2.258482	 0.271340	 0.000669
H	 -1.002280	 -1.233920	 -0.870484
H	 -1.002061	 -1.235367	 0.868958
C	 -3.544441	 -0.550271	 -0.000253
H	 -2.250545	 0.925250	 -0.867923
H	 -2.250598	 0.923423	 0.870642
C	 -4.804551	 0.308747	 0.000556
H	 -3.553737	 -1.201524	 -0.870151
H	 -3.553831	 -1.203282	 0.868313
H	 -4.842050	 0.949078	 -0.874436
H	 -5.698404	 -0.304480	 -0.000254
H	 -4.842277	 0.947103	 0.876982
H	 2.650972	 1.013203	 3.442061
H	 3.377429	 2.465783	 2.741430
H	 1.706421	 2.477337	 3.320955
