12

H   -0.490022   -1.644035    0.000679
N   -0.625934   -0.663929    -0.000707
C   -1.978635   -0.158664    0.001017
C   0.468494   0.129045    -0.002160
H   -2.519057   -0.493535    -0.876362
H   -1.938890   0.917202    -0.004137
H   -2.514266   -0.485137    0.884506
C   1.785715   -0.615093    0.000603
O   0.413285   1.323206    0.000532
H   1.866994   -1.243310    -0.878792
H   2.591506   0.100263    0.006422
H   1.860358   -1.250360    0.875522
