14

O	 -0.694481	 1.313155	 -0.204815
C	 -0.862519	 0.151932	 -0.046791
C	 -2.171428	 -0.477048	 0.339095
O	 0.085519	 -0.757083	 -0.192238
H	 -2.467997	 -1.191667	 -0.417688
H	 -2.923379	 0.287970	 0.444097
H	 -2.053854	 -1.015120	 1.270901
C	 1.392036	 -0.330828	 -0.560749
C	 2.392726	 -0.567551	 0.551223
H	 1.360471	 0.710653	 -0.840277
H	 1.637164	 -0.921233	 -1.430855
H	 3.385099	 -0.293772	 0.211087
H	 2.154188	 0.030899	 1.419751
H	 2.407015	 -1.612377	 0.837103
