20

O	 1.216069	 1.304886	 0.000821
C	 1.121787	 0.124983	 0.000110
C	 -0.170912	 -0.649867	 -0.000147
O	 2.167739	 -0.685178	 -0.000678
C	 -1.413045	 0.229353	 0.001137
H	 -0.152877	 -1.303435	 -0.866175
H	 -0.152278	 -1.305116	 0.864586
C	 -2.668460	 -0.537633	 -0.403801
H	 -1.260548	 1.065656	 -0.671828
H	 -1.547070	 0.658534	 0.987740
C	 -3.919047	 0.334664	 -0.408060
H	 -2.526879	 -0.968087	 -1.391680
H	 -2.815930	 -1.374390	 0.273936
H	 -3.816097	 1.161554	 -1.102496
H	 -4.793723	 -0.235400	 -0.699001
H	 -4.107336	 0.752201	 0.575195
C	 3.449556	 -0.089977	 -0.000570
H	 3.585694	 0.522473	 -0.879546
H	 4.155805	 -0.904274	 -0.001389
H	 3.586173	 0.521118	 0.879272
