25

O	 2.789100	 1.476262	 -0.340569
C	 2.598874	 0.541627	 -1.047946
C	 1.308616	 -0.251995	 -1.012880
C	 3.642332	 0.078527	 -2.039388
C	 0.288398	 0.247429	 0.000314
H	 0.891017	 -0.242393	 -2.017164
H	 1.568068	 -1.290286	 -0.818868
C	 -0.993089	 -0.581367	 -0.000217
H	 0.056231	 1.285026	 -0.210883
H	 0.733978	 0.236316	 0.988478
C	 -2.258482	 0.271340	 0.000669
H	 -1.002280	 -1.233920	 -0.870484
H	 -1.002061	 -1.235367	 0.868958
C	 -3.544441	 -0.550271	 -0.000253
H	 -2.250545	 0.925250	 -0.867923
H	 -2.250598	 0.923423	 0.870642
C	 -4.804551	 0.308747	 0.000556
H	 -3.553737	 -1.201524	 -0.870151
H	 -3.553831	 -1.203282	 0.868313
H	 -4.842050	 0.949078	 -0.874436
H	 -5.698404	 -0.304480	 -0.000254
H	 -4.842277	 0.947103	 0.876982
H	 3.240178	 0.106328	 -3.046139
H	 4.512809	 0.713278	 -1.978135
H	 3.924033	 -0.948240	 -1.833390
