25

H	 -3.675438	 3.474939	 -4.146341
C	 -3.083422	 3.125452	 -3.289450
C	 -3.347573	 1.703484	 -2.874576
O	 -2.317784	 3.855704	 -2.762347
C	 -3.524744	 1.550768	 -1.360983
H	 -4.211963	 1.341616	 -3.416071
H	 -2.485516	 1.121928	 -3.193879
C	 -4.789956	 2.214817	 -0.822038
H	 -3.543678	 0.492768	 -1.123041
H	 -2.653704	 1.958473	 -0.853775
C	 -5.641798	 2.853761	 -1.915610
H	 -4.510717	 2.970879	 -0.092996
H	 -5.387848	 1.484585	 -0.282859
C	 -6.900381	 3.527547	 -1.372262
H	 -5.037082	 3.575553	 -2.455684
H	 -5.927719	 2.092630	 -2.638262
C	 -7.827821	 4.111512	 -2.439380
H	 -6.614724	 4.314215	 -0.677756
H	 -7.459838	 2.800038	 -0.790848
C	 -7.244121	 5.287623	 -3.218572
H	 -8.743922	 4.435874	 -1.955707
H	 -8.114795	 3.326049	 -3.133643
H	 -6.941812	 6.086551	 -2.549005
H	 -6.377675	 4.999038	 -3.801388
H	 -7.976863	 5.694192	 -3.906144
