13

H	 -3.840461	 1.109987	 -0.343237
C	 -3.192439	 0.441701	 0.185694
C	 -2.105997	 -0.000418	 -0.398703
H	 -3.450901	 0.152400	 1.185345
O	 -1.857689	 0.207286	 -1.712105
H	 -1.346904	 -0.541836	 0.135873
C	 -0.679850	 -0.279327	 -2.249714
C	 -0.843806	 -1.683548	 -2.794062
H	 0.128468	 -0.294093	 -1.528481
H	 -0.399105	 0.358048	 -3.074562
F	 0.294611	 -2.084753	 -3.323326
F	 -1.169748	 -2.540975	 -1.850618
F	 -1.764778	 -1.746965	 -3.724786
