12

H	 -0.338105	 -1.234739	 -0.755964
N	 -0.625934	 -0.663929	 -0.000707
C	 -1.978635	 -0.158664	 0.001017
C	 0.271447	 -0.401825	 0.975300
H	 -2.519057	 -0.493535	 -0.876362
H	 -1.938890	 0.917202	 -0.004137
H	 -2.514266	 -0.485137	 0.884506
C	 1.628660	 -1.038189	 0.770766
O	 0.023006	 0.271759	 1.931144
H	 2.075526	 -0.687503	 -0.152233
H	 2.265710	 -0.777396	 1.599754
H	 1.536651	 -2.116430	 0.711185
