25

O	 2.697138	 1.620318	 1.039078
C	 2.577629	 0.577016	 1.593468
C	 1.282888	 -0.209697	 1.569784
C	 3.721262	 -0.040040	 2.366495
C	 0.158954	 0.449153	 0.782690
H	 1.506562	 -1.196213	 1.170006
H	 0.983358	 -0.378345	 2.601698
C	 -1.123442	 -0.378226	 0.786848
H	 0.488038	 0.613611	 -0.237002
H	 -0.035518	 1.432290	 1.195917
C	 -2.258482	 0.271340	 0.000669
H	 -0.920298	 -1.363632	 0.373348
H	 -1.446461	 -0.540867	 1.812747
C	 -3.544441	 -0.550271	 -0.000253
H	 -1.936630	 0.434096	 -1.025019
H	 -2.462816	 1.256092	 0.413753
C	 -4.804551	 0.308747	 0.000556
H	 -3.553737	 -1.201524	 -0.870151
H	 -3.553831	 -1.203282	 0.868313
H	 -4.842050	 0.949078	 -0.874436
H	 -5.698404	 -0.304480	 -0.000254
H	 -4.842277	 0.947103	 0.876982
H	 3.964813	 -1.015252	 1.959442
H	 4.586975	 0.602004	 2.314419
H	 3.436520	 -0.185578	 3.402730
