10

H	 -0.256515	 -1.944617	 0.634049
C	 -0.132204	 -0.932958	 1.003173
N	 0.526300	 -0.128137	 0.000000
H	 0.479920	 -0.981706	 1.894782
H	 -1.119022	 -0.560450	 1.286015
C	 -0.247113	 0.037112	 -1.209233
H	 0.759587	 0.763832	 0.378983
H	 -0.996493	 -0.743733	 -1.271440
H	 0.397975	 -0.057351	 -2.073512
H	 -0.763794	 0.997171	 -1.271673
