24

H	 -3.436473	 1.252944	 -1.023892
O	 -3.458596	 0.315260	 -0.960865
C	 -3.176635	 -0.080824	 0.355601
C	 -1.763371	 0.265266	 0.799691
H	 -3.321825	 -1.153438	 0.379502
H	 -3.895468	 0.357385	 1.043382
C	 -0.744645	 0.278295	 -0.336245
H	 -1.775829	 1.235873	 1.293282
H	 -1.461385	 -0.455256	 1.556025
C	 0.660833	 0.659513	 0.121221
H	 -1.076151	 0.966663	 -1.105768
H	 -0.718415	 -0.705547	 -0.798707
C	 1.676574	 0.665761	 -1.019515
H	 0.624989	 1.637652	 0.591167
H	 0.991653	 -0.036174	 0.889619
C	 3.116497	 0.963406	 -0.597758
H	 1.367380	 1.388907	 -1.770719
H	 1.655076	 -0.304533	 -1.508071
C	 3.347141	 2.376348	 -0.067151
H	 3.764436	 0.804348	 -1.454292
H	 3.426411	 0.241643	 0.153529
H	 3.040406	 3.120334	 -0.795487
H	 4.397075	 2.539567	 0.147885
H	 2.795957	 2.561742	 0.846868
