24

H	 -3.436473	 1.252944	 -1.023892
O	 -3.458596	 0.315260	 -0.960865
C	 -3.176635	 -0.080824	 0.355601
C	 -1.763371	 0.265266	 0.799691
H	 -3.321825	 -1.153438	 0.379502
H	 -3.895468	 0.357385	 1.043382
C	 -0.673390	 -0.426948	 -0.013392
H	 -1.631049	 1.344913	 0.747560
H	 -1.664587	 -0.001624	 1.849167
C	 0.737842	 -0.043159	 0.423759
H	 -0.806103	 -0.190518	 -1.063345
H	 -0.797221	 -1.503753	 0.074146
C	 1.744704	 -1.178098	 0.247152
H	 1.057143	 0.827116	 -0.141536
H	 0.722270	 0.260538	 1.468451
C	 1.520172	 -2.385598	 1.158950
H	 2.749700	 -0.793304	 0.404525
H	 1.709144	 -1.515489	 -0.785090
C	 1.731176	 -2.110672	 2.645906
H	 2.197541	 -3.176962	 0.852862
H	 0.515768	 -2.770658	 1.002997
H	 2.726076	 -1.718590	 2.831709
H	 1.622905	 -3.021157	 3.224297
H	 1.016164	 -1.394067	 3.031704
