23

O	 -0.661489	 -1.654523	 1.661367
C	 -1.523129	 -1.436538	 0.878753
C	 -2.789244	 -2.244153	 0.783920
O	 -1.481217	 -0.452708	 0.001092
H	 -3.292492	 -2.208695	 1.740771
H	 -3.443818	 -1.877968	 0.009271
H	 -2.525724	 -3.274947	 0.588738
C	 -0.332055	 0.384012	 -0.000250
C	 0.892252	 -0.506059	 -0.000295
H	 -0.360822	 1.020205	 -0.874146
H	 -0.359817	 1.021310	 0.872861
C	 2.188199	 0.299473	 -0.001416
H	 0.857046	 -1.152781	 -0.871031
H	 0.857910	 -1.151798	 0.871202
C	 2.783200	 0.476428	 1.392781
H	 2.918319	 -0.189224	 -0.641788
H	 2.006416	 1.278043	 -0.438830
C	 4.077613	 1.282345	 1.392242
H	 2.966934	 -0.500778	 1.830236
H	 2.054546	 0.964831	 2.033571
H	 4.838200	 0.800935	 0.786769
H	 4.473064	 1.389536	 2.395554
H	 3.918801	 2.277802	 0.991371
