22

O	 0.107185	 -4.470096	 -2.628190
C	 0.416286	 -3.412656	 -3.072836
C	 0.371094	 -2.161552	 -2.218001
C	 0.886685	 -3.260554	 -4.499846
C	 1.651337	 -2.016962	 -1.385587
H	 -0.483363	 -2.245970	 -1.558540
H	 0.235608	 -1.284342	 -2.841708
C	 1.630207	 -0.772146	 -0.501001
H	 1.766948	 -2.908843	 -0.782751
H	 2.514322	 -1.970843	 -2.045458
C	 2.907848	 -0.545876	 0.309149
H	 0.781654	 -0.830265	 0.176169
H	 1.459791	 0.098726	 -1.128013
C	 3.373802	 0.906639	 0.372125
H	 3.699140	 -1.146831	 -0.127906
H	 2.764321	 -0.923458	 1.318191
H	 3.519798	 1.311927	 -0.623875
H	 4.316899	 0.983758	 0.900700
H	 2.661122	 1.540651	 0.885346
H	 0.148923	 -2.695251	 -5.060325
H	 1.017914	 -4.230782	 -4.953725
H	 1.815401	 -2.702427	 -4.539473
