19

H	 3.889604	 0.356866	 -0.089510
N	 3.091268	 -0.241216	 -0.065538
C	 1.860978	 0.530248	 0.016256
H	 3.192566	 -0.835836	 0.730398
C	 0.644130	 -0.381765	 -0.031064
H	 1.835721	 1.204666	 -0.833114
H	 1.808789	 1.151975	 0.911067
C	 -0.678115	 0.376691	 0.025731
H	 0.693998	 -0.977147	 -0.936845
H	 0.693309	 -1.082142	 0.800523
C	 -1.897548	 -0.518512	 -0.176248
H	 -0.678596	 1.155709	 -0.733272
H	 -0.764460	 0.885766	 0.982945
C	 -3.217008	 0.244436	 -0.125174
H	 -1.812990	 -1.028418	 -1.131831
H	 -1.901513	 -1.295591	 0.583294
H	 -3.258415	 1.006753	 -0.896146
H	 -4.061063	 -0.419654	 -0.272013
H	 -3.347358	 0.737797	 0.832396
