20

H	 3.093496	 -1.573221	 -1.321578
O	 2.441625	 -1.548148	 -0.627899
C	 1.688107	 -0.463589	 -0.807784
C	 0.624473	 -0.343591	 0.253101
O	 1.869465	 0.288858	 -1.708866
C	 -0.265902	 0.883932	 0.072916
H	 0.054889	 -1.266995	 0.236646
H	 1.130435	 -0.323901	 1.215061
C	 -1.728698	 0.646073	 0.462102
H	 -0.209144	 1.219470	 -0.958188
H	 0.135059	 1.692851	 0.673903
C	 -2.482460	 -0.343073	 -0.431425
H	 -2.245265	 1.602650	 0.432430
H	 -1.779332	 0.308348	 1.496285
C	 -3.960546	 -0.461025	 -0.060175
H	 -2.395034	 -0.026811	 -1.468912
H	 -2.024850	 -1.327147	 -0.371646
H	 -4.472726	 -1.168004	 -0.705284
H	 -4.465146	 0.496508	 -0.151489
H	 -4.081218	 -0.800940	 0.964585
