13

H	 -4.101154	 0.485471	 -0.619971
C	 -3.323610	 0.089065	 0.003686
C	 -2.181916	 -0.280443	 -0.529229
H	 -3.504371	 0.005226	 1.058773
O	 -1.180634	 -0.819263	 0.215062
H	 -1.978426	 -0.197968	 -1.582312
C	 0.051604	 -1.018856	 -0.387932
C	 1.043764	 0.054862	 -0.001873
H	 -0.017620	 -1.041351	 -1.469781
H	 0.437898	 -1.966374	 -0.042284
F	 2.212596	 -0.199467	 -0.571921
F	 0.652529	 1.252447	 -0.405055
F	 1.230877	 0.110694	 1.300533
