23

O	 -1.985612	 0.172542	 -2.063205
C	 -2.225610	 -0.472536	 -1.093210
C	 -3.407683	 -1.399583	 -0.972568
O	 -1.481751	 -0.454642	 0.000584
H	 -3.350784	 -2.140366	 -1.761153
H	 -3.439325	 -1.889110	 -0.010383
H	 -4.315246	 -0.827763	 -1.124988
C	 -0.334255	 0.388708	 0.000906
C	 0.891947	 -0.504646	 0.000751
H	 -0.365390	 1.025305	 -0.873475
H	 -0.365484	 1.024911	 0.875569
C	 2.191998	 0.301789	 0.000897
H	 0.855148	 -1.151283	 -0.871571
H	 0.855132	 -1.151660	 0.872805
C	 3.441114	 -0.581407	 0.000108
H	 2.215074	 0.954890	 -0.869742
H	 2.215465	 0.953923	 0.872248
C	 4.739576	 0.224112	 -0.001102
H	 3.419457	 -1.233487	 -0.870178
H	 3.420834	 -1.233096	 0.870717
H	 4.804918	 0.861552	 -0.878265
H	 5.606527	 -0.429058	 -0.001824
H	 4.806469	 0.861674	 0.875853
