14

H	 0.710892	 -2.823046	 -1.978231
O	 0.729046	 -2.305492	 -1.187317
C	 -0.277070	 -1.436825	 -1.229403
C	 -0.318151	 -0.570512	 0.000144
O	 -1.026241	 -1.385266	 -2.142667
C	 -1.454884	 0.441630	 -0.000560
H	 -0.381579	 -1.233641	 0.856956
H	 0.646572	 -0.079442	 0.077987
C	 -2.822577	 -0.232186	 0.000063
H	 -1.359760	 1.084704	 -0.867077
H	 -1.359641	 1.085996	 0.864983
H	 -2.954352	 -0.858985	 -0.875745
H	 -3.615886	 0.505352	 0.000019
H	 -2.953878	 -0.858359	 0.876394
