10

H	 -1.549384	 0.685794	 2.599424
O	 -0.623401	 0.570275	 2.482538
C	 -0.216877	 1.190006	 1.301734
C	 -0.793473	 0.591216	 0.050087
H	 0.863416	 1.110857	 1.270010
H	 -0.449072	 2.253198	 1.321920
C	 -1.534243	 -0.493009	 -0.013340
H	 -0.554577	 1.125761	 -0.854589
H	 -1.101195	 -1.466332	 -0.144046
H	 -2.604242	 -0.437780	 0.050785
