20

H	 3.729471	 -0.928294	 -0.070608
O	 2.826016	 -1.159218	 0.122261
C	 2.077727	 -0.067559	 -0.035091
C	 0.624473	 -0.343591	 0.253101
O	 2.542965	 0.974826	 -0.363729
C	 -0.265902	 0.883932	 0.072916
H	 0.324016	 -1.163849	 -0.390541
H	 0.565024	 -0.726111	 1.268924
C	 -1.728698	 0.646073	 0.462102
H	 -0.209144	 1.219470	 -0.958188
H	 0.135059	 1.692851	 0.673903
C	 -2.578169	 1.913923	 0.588250
H	 -1.743120	 0.123258	 1.415632
H	 -2.191397	 -0.027571	 -0.257807
C	 -3.996579	 1.623915	 1.078647
H	 -2.092466	 2.603397	 1.275827
H	 -2.634365	 2.425108	 -0.369306
H	 -4.579224	 2.536317	 1.158404
H	 -3.984184	 1.152182	 2.056983
H	 -4.517926	 0.957094	 0.397630
