27

H	 0.791876	 -9.961907	 -2.986556
O	 1.659518	 -9.742974	 -3.271329
C	 1.663503	 -9.464930	 -4.646811
C	 1.015533	 -8.134065	 -4.998407
H	 2.703957	 -9.449999	 -4.942128
H	 1.183690	 -10.271197	 -5.198320
C	 1.475455	 -6.964100	 -4.131516
H	 1.217462	 -7.916881	 -6.043019
H	 -0.061280	 -8.251136	 -4.902658
C	 1.008854	 -7.083638	 -2.681402
H	 1.104858	 -6.036574	 -4.555020
H	 2.562385	 -6.905617	 -4.152706
C	 1.503431	 -5.975515	 -1.749891
H	 -0.077759	 -7.114092	 -2.657474
H	 1.346198	 -8.038601	 -2.288063
C	 3.009841	 -5.968591	 -1.496077
H	 1.221201	 -5.018133	 -2.179186
H	 0.978992	 -6.045472	 -0.799509
C	 3.483501	 -7.168232	 -0.679428
H	 3.280803	 -5.052571	 -0.975542
H	 3.547640	 -5.953026	 -2.439228
C	 4.787405	 -7.768073	 -1.195101
H	 3.610487	 -6.868801	 0.357294
H	 2.710250	 -7.931867	 -0.682378
H	 5.589371	 -7.037552	 -1.174452
H	 5.096164	 -8.614511	 -0.592342
H	 4.682460	 -8.112344	 -2.218729
