29

O	 0.571877	 -2.569725	 2.356060
C	 1.127243	 -1.924623	 1.533628
C	 1.703723	 -0.547238	 1.740533
O	 1.317782	 -2.342573	 0.292610
C	 1.515334	 -0.017337	 3.156503
H	 2.749266	 -0.599361	 1.461830
H	 1.234737	 0.107685	 1.012894
C	 2.045979	 -0.954039	 4.242709
H	 0.463303	 0.183529	 3.326660
H	 2.017954	 0.938678	 3.236606
C	 3.447434	 -1.508392	 3.991663
H	 1.355627	 -1.787233	 4.334179
H	 2.027892	 -0.441974	 5.202262
C	 4.452501	 -0.431160	 3.592668
H	 3.798137	 -2.010595	 4.890368
H	 3.416781	 -2.264106	 3.212245
C	 4.184104	 0.170593	 2.216212
H	 5.455065	 -0.851771	 3.609734
H	 4.443752	 0.361626	 4.337167
C	 5.193314	 1.244579	 1.824006
H	 4.192738	 -0.620356	 1.471198
H	 3.183435	 0.593914	 2.198356
H	 4.974169	 1.650549	 0.843115
H	 6.201150	 0.843694	 1.798153
H	 5.184535	 2.067018	 2.531625
C	 0.824678	 -3.623490	 -0.043565
H	 -0.139967	 -3.792406	 0.411591
H	 1.544729	 -4.329140	 0.337866
H	 0.731980	 -3.727573	 -1.114467
