29

O	 3.285609	 -2.847289	 -0.566877
C	 2.574127	 -2.072921	 -0.023620
C	 2.955472	 -0.676523	 0.397065
O	 1.317782	 -2.342573	 0.292610
C	 4.393974	 -0.311003	 0.053028
H	 2.243435	 -0.003786	 -0.065515
H	 2.779588	 -0.605916	 1.465901
C	 4.745371	 -0.506378	 -1.422501
H	 5.068893	 -0.892569	 0.671361
H	 4.560520	 0.724626	 0.322740
C	 3.729287	 0.063487	 -2.411053
H	 4.845916	 -1.572016	 -1.605450
H	 5.723286	 -0.073621	 -1.621708
C	 3.316257	 1.495807	 -2.082950
H	 4.151178	 0.032707	 -3.413017
H	 2.840397	 -0.560075	 -2.435131
C	 2.494620	 1.613200	 -0.802362
H	 2.744639	 1.903574	 -2.913202
H	 4.206091	 2.114890	 -1.994643
C	 2.084300	 3.046723	 -0.482322
H	 1.605029	 0.995291	 -0.889180
H	 3.065656	 1.208611	 0.028951
H	 1.503418	 3.094656	 0.431605
H	 1.481349	 3.468404	 -1.279657
H	 2.953513	 3.683543	 -0.355290
C	 0.824678	 -3.623490	 -0.043565
H	 -0.139967	 -3.792406	 0.411591
H	 1.544729	 -4.329140	 0.337866
H	 0.731980	 -3.727573	 -1.114467
