12

H	 -1.000870	 -0.937387	 0.873207
N	 -0.625934	 -0.663929	 -0.000707
C	 -1.276346	 -1.130139	 -1.202668
C	 0.468494	 0.129045	 -0.002160
H	 -1.273996	 -2.212599	 -1.250251
H	 -0.738575	 -0.743172	 -2.051286
H	 -2.301562	 -0.782613	 -1.249528
C	 1.785715	 -0.615093	 0.000603
O	 0.413285	 1.323206	 0.000532
H	 1.866994	 -1.243310	 -0.878792
H	 2.591506	 0.100263	 0.006422
H	 1.860358	 -1.250360	 0.875522
