19

O	 -2.071633	 -1.227563	 -0.223463
C	 -1.652164	 -0.152425	 0.058082
C	 -0.327811	 0.006324	 0.778296
C	 -2.402515	 1.108629	 -0.298924
C	 0.120193	 1.472783	 0.792904
H	 -0.406338	 -0.364308	 1.794952
H	 0.404815	 -0.592652	 0.252630
C	 1.460498	 1.672333	 1.494325
H	 -0.634011	 2.082987	 1.283334
H	 0.187089	 1.825527	 -0.230552
C	 1.916149	 3.127500	 1.500260
H	 1.389423	 1.311779	 2.516808
H	 2.212886	 1.060135	 1.005790
H	 1.199937	 3.760472	 2.013505
H	 2.026847	 3.506449	 0.490056
H	 2.871122	 3.235906	 2.000937
H	 -3.240910	 0.874416	 -0.936711
H	 -1.747554	 1.818823	 -0.790984
H	 -2.760419	 1.579708	 0.610998
