22

O	 -1.723662	 -2.492646	 0.103312
C	 -1.144500	 -1.940164	 -0.774620
C	 -0.881910	 -0.448129	 -0.720509
C	 -0.624357	 -2.692408	 -1.976430
C	 0.376695	 -0.140025	 0.100361
H	 -1.741398	 0.019242	 -0.256876
H	 -0.775342	 -0.048195	 -1.723285
C	 1.630207	 -0.772146	 -0.501001
H	 0.486632	 0.935267	 0.162725
H	 0.248225	 -0.501310	 1.117842
C	 2.907848	 -0.545876	 0.309149
H	 1.772784	 -0.391628	 -1.509394
H	 1.468529	 -1.842059	 -0.599744
C	 3.373802	 0.906639	 0.372125
H	 3.699140	 -1.146831	 -0.127906
H	 2.764321	 -0.923458	 1.318191
H	 3.519798	 1.311927	 -0.623875
H	 4.316899	 0.983758	 0.900700
H	 2.661122	 1.540651	 0.885346
H	 -1.181137	 -2.387244	 -2.856697
H	 -0.738958	 -3.755186	 -1.828309
H	 0.417324	 -2.452011	 -2.157258
