27

H	 2.811492	 -9.962921	 -4.159431
O	 3.613932	 -9.491255	 -4.035127
C	 4.043849	 -8.935661	 -5.249936
C	 3.205210	 -7.750791	 -5.705406
H	 5.063316	 -8.614737	 -5.083581
H	 4.068563	 -9.696660	 -6.027574
C	 2.936944	 -6.716091	 -4.614866
H	 3.704723	 -7.276425	 -6.544824
H	 2.258420	 -8.134959	 -6.077431
C	 2.025183	 -7.245711	 -3.508958
H	 2.489810	 -5.833557	 -5.060071
H	 3.882574	 -6.400900	 -4.177002
C	 1.781985	 -6.275212	 -2.351702
H	 1.070405	 -7.534813	 -3.941445
H	 2.462507	 -8.155705	 -3.107551
C	 3.009841	 -5.968591	 -1.496077
H	 1.405705	 -5.342377	 -2.762507
H	 0.989750	 -6.665697	 -1.716847
C	 3.483501	 -7.168232	 -0.679428
H	 2.780103	 -5.145955	 -0.822313
H	 3.827464	 -5.628102	 -2.124220
C	 4.787405	 -7.768073	 -1.195101
H	 3.610487	 -6.868801	 0.357294
H	 2.710250	 -7.931867	 -0.682378
H	 5.589371	 -7.037552	 -1.174452
H	 5.096164	 -8.614511	 -0.592342
H	 4.682460	 -8.112344	 -2.218729
