25

O	 2.841872	 1.394581	 -0.208384
C	 2.760590	 0.291319	 -0.640029
C	 1.464848	 -0.493815	 -0.618840
C	 3.956831	 -0.408262	 -1.244857
C	 0.288398	 0.247429	 0.000314
H	 1.241460	 -0.784489	 -1.642888
H	 1.654977	 -1.425132	 -0.090158
C	 -0.993089	 -0.581367	 -0.000217
H	 0.128242	 1.173893	 -0.539250
H	 0.542222	 0.532793	 1.014846
C	 -2.258482	 0.271340	 0.000669
H	 -1.002280	 -1.233920	 -0.870484
H	 -1.002061	 -1.235367	 0.868958
C	 -3.544441	 -0.550271	 -0.000253
H	 -2.250545	 0.925250	 -0.867923
H	 -2.250598	 0.923423	 0.870642
C	 -4.804551	 0.308747	 0.000556
H	 -3.553737	 -1.201524	 -0.870151
H	 -3.553831	 -1.203282	 0.868313
H	 -4.842050	 0.949078	 -0.874436
H	 -5.698404	 -0.304480	 -0.000254
H	 -4.842277	 0.947103	 0.876982
H	 3.749574	 -0.681796	 -2.273580
H	 4.817982	 0.240925	 -1.207889
H	 4.166905	 -1.324493	 -0.704088
