20

O	 0.803026	 1.957349	 0.415954
C	 -0.080195	 2.023698	 1.201180
C	 -1.342949	 1.201546	 1.169833
O	 -0.070477	 2.850429	 2.234039
C	 -1.413045	 0.229353	 0.001137
H	 -1.409928	 0.680344	 2.119223
H	 -2.177120	 1.895365	 1.154508
C	 -2.702562	 -0.586401	 0.000228
H	 -0.557661	 -0.435914	 0.036903
H	 -1.326244	 0.780189	 -0.928696
C	 -3.953810	 0.284959	 -0.000782
H	 -2.717793	 -1.238567	 -0.869075
H	 -2.719108	 -1.238472	 0.869576
H	 -3.983727	 0.924403	 -0.876454
H	 -4.852989	 -0.320147	 -0.001515
H	 -3.985140	 0.924399	 0.874841
C	 1.059744	 3.685098	 2.386509
H	 1.955914	 3.095001	 2.508545
H	 0.878149	 4.273289	 3.271338
H	 1.176462	 4.329587	 1.527885
