20

O	 1.216252	 1.304920	 0.000821
C	 1.121970	 0.125017	 0.000110
C	 -0.170729	 -0.649833	 -0.000147
O	 2.167922	 -0.685144	 -0.000678
C	 -1.412862	 0.229387	 0.001137
H	 -0.152694	 -1.303401	 -0.866175
H	 -0.152095	 -1.305082	 0.864586
C	 -2.702379	 -0.586367	 0.000228
H	 -1.390561	 0.882035	 -0.864365
H	 -1.390366	 0.879871	 0.868264
C	 -3.953627	 0.284993	 -0.000782
H	 -2.717610	 -1.238533	 -0.869075
H	 -2.718925	 -1.238438	 0.869576
H	 -3.983544	 0.924437	 -0.876454
H	 -4.852806	 -0.320113	 -0.001515
H	 -3.984957	 0.924433	 0.874841
C	 3.449739	 -0.089943	 -0.000570
H	 3.585877	 0.522507	 -0.879546
H	 4.155988	 -0.904240	 -0.001389
H	 3.586356	 0.521152	 0.879272
