14

O	 -0.694481	 1.313155	 -0.204815
C	 -0.862519	 0.151932	 -0.046791
C	 -2.171428	 -0.477048	 0.339095
O	 0.085519	 -0.757083	 -0.192238
H	 -2.467997	 -1.191667	 -0.417688
H	 -2.923379	 0.287970	 0.444097
H	 -2.053854	 -1.015120	 1.270901
C	 1.240186	 -0.426126	 -0.954924
C	 2.279997	 0.287088	 -0.115865
H	 0.946538	 0.173281	 -1.802448
H	 1.615786	 -1.374715	 -1.308273
H	 3.168879	 0.462786	 -0.711239
H	 1.908752	 1.241951	 0.230250
H	 2.557822	 -0.314038	 0.741488
