18

H	 -3.612575	 1.133704	 1.130025
O	 -2.752932	 1.425312	 0.862156
C	 -2.026376	 0.340750	 0.341611
C	 -0.673256	 0.843270	 -0.132153
H	 -1.887574	 -0.423601	 1.104132
H	 -2.564334	 -0.116774	 -0.487802
C	 0.486613	 -0.083066	 0.235839
H	 -0.715586	 0.970948	 -1.210718
H	 -0.508072	 1.829858	 0.297090
C	 1.840406	 0.433480	 -0.254303
H	 0.300215	 -1.068318	 -0.178947
H	 0.519509	 -0.203625	 1.318070
C	 3.000220	 -0.489290	 0.118523
H	 1.809207	 0.553576	 -1.335192
H	 2.021860	 1.424500	 0.157276
H	 2.864959	 -1.479103	 -0.307933
H	 3.946603	 -0.099227	 -0.243630
H	 3.080049	 -0.602997	 1.196117
