19

O	 -2.042660	 -1.228467	 -0.269051
C	 -1.654023	 -0.146239	 0.050116
C	 -0.332414	 0.023943	 0.778391
C	 -2.438690	 1.106168	 -0.272390
C	 0.845602	 -0.001799	 -0.208264
H	 -0.323894	 0.953762	 1.340307
H	 -0.235570	 -0.796875	 1.480389
C	 2.200199	 0.136050	 0.488226
H	 0.733600	 0.799951	 -0.936093
H	 0.811074	 -0.933864	 -0.764325
C	 3.373941	 0.101769	 -0.489709
H	 2.224594	 1.066941	 1.050607
H	 2.311558	 -0.664668	 1.215562
H	 3.308849	 0.912301	 -1.210026
H	 3.394703	 -0.831981	 -1.043894
H	 4.320830	 0.198405	 0.031913
H	 -3.277934	 0.862993	 -0.909009
H	 -1.806884	 1.842952	 -0.759692
H	 -2.802963	 1.554912	 0.648038
