29

O	 3.219313	 0.959291	 -0.614106
C	 2.698710	 0.058177	 -0.050237
C	 1.246364	 -0.005813	 0.348416
O	 3.344101	 -1.038700	 0.312317
C	 0.453207	 1.232821	 -0.049003
H	 0.839270	 -0.907818	 -0.092281
H	 1.216683	 -0.160521	 1.422434
C	 -0.998367	 1.217982	 0.432195
H	 0.481498	 1.345443	 -1.127236
H	 0.951413	 2.105557	 0.354893
C	 -1.882951	 0.151251	 -0.211235
H	 -1.429490	 2.193659	 0.228843
H	 -1.019755	 1.099323	 1.513279
C	 -2.974089	 -0.362699	 0.724211
H	 -2.343063	 0.562702	 -1.106710
H	 -1.277828	 -0.689344	 -0.537981
C	 -2.435201	 -1.175971	 1.897652
H	 -3.674198	 -0.972407	 0.158134
H	 -3.545982	 0.479907	 1.106074
C	 -3.531279	 -1.687400	 2.826538
H	 -1.863686	 -2.018404	 1.517654
H	 -1.737385	 -0.567065	 2.466108
H	 -3.115285	 -2.259678	 3.647775
H	 -4.226475	 -2.329003	 2.295353
H	 -4.099758	 -0.866222	 3.250456
C	 4.720529	 -1.114346	 0.001449
H	 4.874321	 -1.055557	 -1.065852
H	 5.057824	 -2.067950	 0.373977
H	 5.264321	 -0.313596	 0.480350
