28

H	 5.229035	 1.721906	 0.712828
C	 4.737229	 0.915409	 0.177840
C	 3.277600	 0.776412	 0.608351
H	 4.811141	 1.129656	 -0.884222
H	 5.293790	 0.002372	 0.371239
C	 2.555642	 -0.357665	 -0.122718
H	 2.759453	 1.712215	 0.425599
H	 3.234848	 0.597171	 1.681541
C	 1.097112	 -0.532807	 0.300699
H	 2.593432	 -0.183074	 -1.192172
H	 3.080394	 -1.291804	 0.064528
C	 0.169600	 0.576866	 -0.172154
H	 0.704110	 -1.461373	 -0.110499
H	 1.015183	 -0.631906	 1.380812
C	 -1.181045	 0.701995	 0.511084
O	 0.477833	 1.314309	 -1.059608
C	 -2.285934	 -0.139295	 -0.145128
H	 -1.449051	 1.751551	 0.493206
H	 -1.071135	 0.403303	 1.551943
C	 -3.651768	 0.085446	 0.506485
H	 -2.346596	 0.110469	 -1.202272
H	 -2.034737	 -1.195320	 -0.088721
C	 -4.759797	 -0.746382	 -0.137905
H	 -3.908762	 1.140117	 0.445781
H	 -3.588286	 -0.154158	 1.565709
H	 -4.868882	 -0.505166	 -1.191300
H	 -4.548009	 -1.809175	 -0.062213
H	 -5.715422	 -0.564821	 0.343442
