18

H	 -3.144994	 -1.202467	 -0.018751
O	 -2.321472	 -0.864941	 -0.318626
C	 -2.021813	 0.336996	 0.342658
C	 -0.669613	 0.837286	 -0.127252
H	 -2.780861	 1.084746	 0.127159
H	 -2.006390	 0.184138	 1.420053
C	 0.490865	 -0.082543	 0.241244
H	 -0.708709	 0.967192	 -1.204587
H	 -0.507562	 1.822272	 0.303070
C	 1.839800	 0.429565	 -0.255472
H	 0.305636	 -1.070211	 -0.165276
H	 0.527397	 -0.195943	 1.322876
C	 2.575525	 -0.578048	 -1.132517
H	 1.689627	 1.349551	 -0.813842
H	 2.464344	 0.689017	 0.595598
H	 1.991087	 -0.830908	 -2.010817
H	 3.527510	 -0.184573	 -1.470462
H	 2.771442	 -1.498189	 -0.591774
