15

O	 -0.988175	 -1.402891	 0.050086
C	 -0.675048	 -0.248293	 -0.009686
C	 -1.742492	 0.826599	 -0.011538
N	 0.622280	 0.144970	 -0.099307
H	 -1.692153	 1.431066	 -0.908439
H	 -2.698310	 0.331559	 0.031353
H	 -1.642148	 1.483784	 0.843455
C	 1.479132	 -0.002842	 1.058235
C	 1.134894	 1.002802	 -1.140992
H	 2.468258	 -0.307573	 0.738874
H	 1.071542	 -0.748158	 1.716684
H	 1.570103	 0.932650	 1.604322
H	 2.164037	 0.737416	 -1.346103
H	 0.581349	 0.891167	 -2.057519
H	 1.112883	 2.050957	 -0.851283
