20

O	 0.979430	 1.678404	 0.496439
C	 0.432185	 1.213482	 1.437412
C	 -0.843496	 0.411770	 1.400516
O	 0.883379	 1.342115	 2.674446
C	 -1.413045	 0.229353	 0.001137
H	 -0.634526	 -0.545106	 1.867635
H	 -1.554085	 0.909491	 2.052281
C	 -2.702562	 -0.586401	 0.000228
H	 -0.672627	 -0.253439	 -0.626744
H	 -1.593675	 1.202391	 -0.441710
C	 -3.953810	 0.284959	 -0.000782
H	 -2.717793	 -1.238567	 -0.869075
H	 -2.719108	 -1.238472	 0.869576
H	 -3.983727	 0.924403	 -0.876454
H	 -4.852989	 -0.320147	 -0.001515
H	 -3.985140	 0.924399	 0.874841
C	 2.078344	 2.074406	 2.856456
H	 2.894392	 1.611693	 2.321489
H	 2.275007	 2.064463	 3.916216
H	 1.959973	 3.089946	 2.508763
