24

H	 -3.498985	 1.253143	 -1.010443
O	 -3.458596	 0.315260	 -0.960865
C	 -3.176635	 -0.080824	 0.355601
C	 -1.763371	 0.265266	 0.799691
H	 -3.321825	 -1.153438	 0.379502
H	 -3.895468	 0.357385	 1.043382
C	 -0.796938	 0.515120	 -0.354390
H	 -1.800355	 1.142092	 1.444418
H	 -1.394808	 -0.549846	 1.417868
C	 -0.498206	 -0.739707	 -1.170564
H	 0.128308	 0.923958	 0.036357
H	 -1.215242	 1.277968	 -1.006764
C	 -1.757803	 -1.514106	 -1.553671
H	 0.049108	 -0.456338	 -2.064453
H	 0.162196	 -1.391444	 -0.602264
C	 -2.503926	 -2.150954	 -0.379970
H	 -1.498344	 -2.286707	 -2.273823
H	 -2.436972	 -0.839038	 -2.067123
C	 -1.743798	 -3.269913	 0.328042
H	 -3.444814	 -2.549118	 -0.747354
H	 -2.763204	 -1.379782	 0.340785
H	 -1.465807	 -4.053435	 -0.369735
H	 -2.355155	 -3.720055	 1.101900
H	 -0.837093	 -2.909859	 0.799053
