24

H	 -3.436473	 1.252944	 -1.023892
O	 -3.458596	 0.315260	 -0.960865
C	 -3.176635	 -0.080824	 0.355601
C	 -1.763371	 0.265266	 0.799691
H	 -3.321825	 -1.153438	 0.379502
H	 -3.895468	 0.357385	 1.043382
C	 -0.673390	 -0.426948	 -0.013392
H	 -1.631049	 1.344913	 0.747560
H	 -1.664587	 -0.001624	 1.849167
C	 0.737842	 -0.043159	 0.423759
H	 -0.806103	 -0.190518	 -1.063345
H	 -0.797221	 -1.503753	 0.074146
C	 1.273264	 -0.926962	 1.548599
H	 1.399203	 -0.095563	 -0.435743
H	 0.744850	 0.994408	 0.751268
C	 2.653134	 -0.531178	 2.076955
H	 1.303131	 -1.959882	 1.209434
H	 0.568348	 -0.901162	 2.375067
C	 3.793429	 -0.703950	 1.076445
H	 2.868736	 -1.131129	 2.955790
H	 2.624668	 0.501247	 2.415640
H	 3.842694	 -1.726364	 0.715447
H	 4.747033	 -0.471025	 1.536476
H	 3.680744	 -0.054874	 0.216440
