28

H	 -4.435151	 -0.443272	 6.010796
C	 -3.377966	 -0.624449	 5.854585
C	 -3.022034	 -0.568000	 4.372879
H	 -2.827857	 0.123623	 6.414928
H	 -3.142437	 -1.595145	 6.278937
C	 -1.540133	 -0.829776	 4.113241
H	 -3.292122	 0.404263	 3.977032
H	 -3.615320	 -1.302420	 3.833006
C	 -1.155499	 -0.785807	 2.637771
H	 -0.943979	 -0.105744	 4.654727
H	 -1.279893	 -1.809224	 4.504060
C	 -1.158526	 0.603377	 2.022431
H	 -0.147365	 -1.171280	 2.507993
H	 -1.796558	 -1.435589	 2.049261
C	 -1.180025	 0.697761	 0.509157
O	 -1.124299	 1.583614	 2.694175
C	 -2.285431	 -0.137488	 -0.145671
H	 -0.209921	 0.373472	 0.157623
H	 -1.304974	 1.741273	 0.232271
C	 -3.646545	 0.082747	 0.508954
H	 -2.348635	 0.118247	 -1.199806
H	 -2.034895	 -1.192387	 -0.096473
C	 -4.757412	 -0.737227	 -0.138149
H	 -3.900211	 1.137405	 0.459735
H	 -3.580878	 -0.166775	 1.564416
H	 -4.867876	 -0.486707	 -1.187777
H	 -4.549650	 -1.800049	 -0.072540
H	 -5.709585	 -0.556397	 0.346597
