27

H	 -0.144318	 -8.685506	 0.903323
O	 0.362979	 -9.029062	 0.191672
C	 -0.472689	 -9.354724	 -0.887622
C	 -1.016182	 -8.138395	 -1.622365
H	 0.132831	 -9.944446	 -1.562569
H	 -1.293238	 -9.987455	 -0.554755
C	 0.037108	 -7.083800	 -1.954419
H	 -1.498755	 -8.473624	 -2.535547
H	 -1.789566	 -7.691496	 -1.002239
C	 0.588966	 -6.387620	 -0.711188
H	 -0.393571	 -6.344404	 -2.621361
H	 0.857993	 -7.552307	 -2.494728
C	 1.701674	 -5.372571	 -0.979160
H	 -0.226294	 -5.895992	 -0.185944
H	 0.971597	 -7.145168	 -0.032820
C	 3.009841	 -5.968591	 -1.496077
H	 1.338410	 -4.653004	 -1.707714
H	 1.898141	 -4.807801	 -0.070540
C	 3.483501	 -7.168232	 -0.679428
H	 3.781425	 -5.201776	 -1.485084
H	 2.898094	 -6.272898	 -2.532375
C	 4.787405	 -7.768073	 -1.195101
H	 3.610487	 -6.868801	 0.357294
H	 2.710250	 -7.931867	 -0.682378
H	 5.589371	 -7.037552	 -1.174452
H	 5.096164	 -8.614511	 -0.592342
H	 4.682460	 -8.112344	 -2.218729
