14

O	 -0.694481	 1.313155	 -0.204815
C	 -0.862519	 0.151932	 -0.046791
C	 -2.171428	 -0.477048	 0.339095
O	 0.085519	 -0.757083	 -0.192238
H	 -2.467997	 -1.191667	 -0.417688
H	 -2.923379	 0.287970	 0.444097
H	 -2.053854	 -1.015120	 1.270901
C	 1.392036	 -0.330828	 -0.560749
C	 2.384871	 -1.474030	 -0.525147
H	 1.700514	 0.472518	 0.089860
H	 1.282031	 0.051894	 -1.564329
H	 3.350692	 -1.127268	 -0.874998
H	 2.503638	 -1.851624	 0.481183
H	 2.060154	 -2.282998	 -1.168361
