24

H	 -3.420663	 1.227371	 -1.044276
O	 -3.452007	 0.283848	 -0.965577
C	 -3.181085	 -0.079926	 0.364119
C	 -1.765924	 0.277073	 0.805136
H	 -3.327791	 -1.152017	 0.410903
H	 -3.905698	 0.375695	 1.036898
C	 -0.677594	 -0.417312	 -0.014550
H	 -1.637766	 1.358238	 0.744969
H	 -1.659588	 0.017670	 1.857098
C	 -0.788692	 -1.943159	 0.010495
H	 0.296500	 -0.114569	 0.357199
H	 -0.732924	 -0.068470	 -1.044424
C	 0.300486	 -2.630950	 -0.816982
H	 -0.742618	 -2.284180	 1.042000
H	 -1.766332	 -2.241319	 -0.366234
C	 0.179021	 -4.157139	 -0.895402
H	 1.277527	 -2.369481	 -0.413595
H	 0.273908	 -2.230542	 -1.828310
C	 0.382924	 -4.880584	 0.437060
H	 0.914294	 -4.524810	 -1.607077
H	 -0.794917	 -4.419860	 -1.303597
H	 1.344498	 -4.626868	 0.875402
H	 0.357707	 -5.957214	 0.298964
H	 -0.386723	 -4.627835	 1.158812
