13

H	 -2.039638	 -1.012565	 1.342259
N	 -1.258212	 -0.393129	 1.306975
C	 -0.561396	 -0.500007	 0.035200
H	 -0.655337	 -0.635770	 2.065264
C	 0.575129	 0.507849	 -0.048832
H	 -1.277498	 -0.296378	 -0.754072
H	 -0.166856	 -1.500062	 -0.150926
C	 1.951750	 -0.141983	 0.035101
H	 0.478254	 1.061643	 -0.975981
H	 0.467676	 1.231891	 0.755499
H	 2.101550	 -0.848142	 -0.774949
H	 2.738260	 0.600794	 -0.026526
H	 2.078939	 -0.679792	 0.968824
