29

O	 3.225979	 0.970355	 -0.599647
C	 2.701189	 0.057885	 -0.047330
C	 1.245376	 -0.013843	 0.345420
O	 3.347903	 -1.046386	 0.304773
C	 0.344073	 0.852592	 -0.531541
H	 0.958702	 -1.059829	 0.315034
H	 1.177392	 0.282367	 1.389132
C	 -1.120514	 0.872920	 -0.080915
H	 0.407765	 0.509990	 -1.559980
H	 0.730460	 1.866062	 -0.529347
C	 -1.854257	 -0.464959	 -0.210568
H	 -1.645745	 1.616244	 -0.676169
H	 -1.177731	 1.217641	 0.950542
C	 -3.338703	 -0.366465	 0.146812
H	 -1.753758	 -0.830561	 -1.231378
H	 -1.388103	 -1.211419	 0.428549
C	 -4.080939	 -1.698604	 0.025889
H	 -3.815886	 0.369617	 -0.497946
H	 -3.440091	 0.009265	 1.163792
C	 -5.563542	 -1.590814	 0.380812
H	 -3.979796	 -2.075979	 -0.989493
H	 -3.608090	 -2.434480	 0.672944
H	 -6.062009	 -2.550543	 0.285635
H	 -6.072803	 -0.887550	 -0.272081
H	 -5.698123	 -1.248223	 1.402963
C	 4.728119	 -1.109107	 -0.004993
H	 4.882018	 -1.033965	 -1.071845
H	 5.068212	 -2.067527	 0.355250
H	 5.265056	 -0.311663	 0.488280
