20

H	 0.559871	 -3.346639	 -0.734483
O	 0.921754	 -2.606501	 -0.270875
C	 0.116995	 -1.562917	 -0.451782
C	 0.626018	 -0.337582	 0.258241
O	 -0.869001	 -1.635093	 -1.100198
C	 -0.267326	 0.883135	 0.076490
H	 0.741926	 -0.606795	 1.301289
H	 1.628560	 -0.149021	 -0.112955
C	 -1.726822	 0.642622	 0.463839
H	 -0.210803	 1.217591	 -0.953497
H	 0.129920	 1.693110	 0.675679
C	 -2.635637	 1.866031	 0.357227
H	 -1.748040	 0.285315	 1.489089
H	 -2.135166	 -0.162263	 -0.143501
C	 -4.051287	 1.593199	 0.855194
H	 -2.203458	 2.682004	 0.930327
H	 -2.685101	 2.207660	 -0.671753
H	 -4.674064	 2.476221	 0.770902
H	 -4.047686	 1.288553	 1.896288
H	 -4.521527	 0.801096	 0.281955
