13

H	 -2.179831	 -0.864659	 1.220112
N	 -1.400854	 -0.241691	 1.194066
C	 -0.561396	 -0.500007	 0.035200
H	 -0.889230	 -0.374002	 2.041456
C	 0.575129	 0.507849	 -0.048832
H	 -1.181822	 -0.412314	 -0.850576
H	 -0.145904	 -1.508827	 0.027319
C	 1.951750	 -0.141983	 0.035101
H	 0.478254	 1.061643	 -0.975981
H	 0.467676	 1.231891	 0.755499
H	 2.101550	 -0.848142	 -0.774949
H	 2.738260	 0.600794	 -0.026526
H	 2.078939	 -0.679792	 0.968824
