24

H	 -3.436473	 1.252944	 -1.023892
O	 -3.458596	 0.315260	 -0.960865
C	 -3.176635	 -0.080824	 0.355601
C	 -1.763371	 0.265266	 0.799691
H	 -3.321825	 -1.153438	 0.379502
H	 -3.895468	 0.357385	 1.043382
C	 -1.184805	 -0.701880	 1.828385
H	 -1.116655	 0.300793	 -0.075729
H	 -1.775349	 1.272818	 1.208449
C	 0.245096	 -0.359033	 2.238034
H	 -1.217370	 -1.709673	 1.429377
H	 -1.821590	 -0.702788	 2.709867
C	 0.816420	 -1.327847	 3.271493
H	 0.872562	 -0.349568	 1.351983
H	 0.272710	 0.650789	 2.642205
C	 2.218575	 -0.979776	 3.774140
H	 0.825241	 -2.332332	 2.854623
H	 0.143959	 -1.361134	 4.124316
C	 3.318264	 -1.081999	 2.719920
H	 2.463085	 -1.645425	 4.596272
H	 2.211131	 0.024246	 4.190439
H	 3.345712	 -2.074453	 2.281334
H	 4.290595	 -0.889098	 3.158787
H	 3.177696	 -0.369286	 1.916250
