20

O	 0.814526	 0.788799	 0.934468
C	 1.122059	 0.121804	 -0.000188
C	 0.395619	 0.074480	 -1.322285
O	 2.172624	 -0.688929	 0.000216
C	 -0.823751	 0.989612	 -1.377149
H	 1.114054	 0.329073	 -2.096744
H	 0.119547	 -0.960623	 -1.504219
C	 -1.540978	 0.922249	 -2.726376
H	 -0.515010	 2.010552	 -1.175000
H	 -1.510768	 0.719294	 -0.581259
C	 -2.764727	 1.835183	 -2.789587
H	 -0.847946	 1.193220	 -3.520326
H	 -1.845853	 -0.103237	 -2.925126
H	 -2.487634	 2.872974	 -2.628767
H	 -3.254441	 1.768825	 -3.756051
H	 -3.492924	 1.566864	 -2.029736
C	 3.452279	 -0.082609	 0.000533
H	 3.583069	 0.529321	 -0.880332
H	 4.163299	 -0.894027	 0.001117
H	 3.582335	 0.529955	 0.881077
