27

H	 -0.946047	 -5.998983	 -4.223255
O	 -0.091665	 -5.876968	 -4.593355
C	 0.027978	 -4.582842	 -5.122691
C	 0.134201	 -3.500036	 -4.059238
H	 0.928377	 -4.590935	 -5.722022
H	 -0.802743	 -4.368461	 -5.792313
C	 1.136838	 -3.807301	 -2.949213
H	 0.399782	 -2.565127	 -4.543561
H	 -0.852628	 -3.361094	 -3.624195
C	 0.699204	 -4.972914	 -2.063403
H	 1.277648	 -2.922065	 -2.338041
H	 2.104139	 -4.039287	 -3.391705
C	 1.701674	 -5.372571	 -0.979160
H	 -0.253629	 -4.730280	 -1.599220
H	 0.515316	 -5.836879	 -2.696031
C	 3.009841	 -5.968591	 -1.496077
H	 1.933724	 -4.491061	 -0.387872
H	 1.230379	 -6.076838	 -0.297219
C	 3.483501	 -7.168232	 -0.679428
H	 3.781425	 -5.201776	 -1.485084
H	 2.898094	 -6.272898	 -2.532375
C	 4.787405	 -7.768073	 -1.195101
H	 3.610487	 -6.868801	 0.357294
H	 2.710250	 -7.931867	 -0.682378
H	 5.589371	 -7.037552	 -1.174452
H	 5.096164	 -8.614511	 -0.592342
H	 4.682460	 -8.112344	 -2.218729
