20

O	 0.084086	 -0.156070	 -0.495113
C	 1.121787	 0.124983	 0.000110
C	 1.433731	 1.421110	 0.703109
O	 2.167739	 -0.685178	 -0.000678
C	 0.266615	 2.397149	 0.736459
H	 1.765320	 1.170537	 1.705477
H	 2.295482	 1.855684	 0.207132
C	 0.616278	 3.696946	 1.455188
H	 -0.580728	 1.925736	 1.221557
H	 -0.049681	 2.612068	 -0.278091
C	 -0.547173	 4.681614	 1.496425
H	 0.935611	 3.474884	 2.470055
H	 1.466002	 4.164588	 0.964764
H	 -1.401369	 4.255526	 2.011578
H	 -0.270597	 5.593955	 2.011999
H	 -0.867058	 4.950343	 0.495406
C	 3.449556	 -0.089977	 -0.000570
H	 3.585694	 0.522473	 -0.879546
H	 4.155805	 -0.904274	 -0.001389
H	 3.586173	 0.521118	 0.879272
