28

H	 3.972579	 -0.580698	 4.248416
C	 3.531424	 -1.260827	 3.528920
C	 2.156740	 -0.775065	 3.082149
H	 4.209618	 -1.336070	 2.685945
H	 3.470833	 -2.239895	 3.993199
C	 1.499007	 -1.715562	 2.074765
H	 2.250858	 0.212905	 2.646262
H	 1.511610	 -0.674128	 3.951886
C	 0.118661	 -1.257992	 1.614153
H	 2.140805	 -1.825879	 1.209459
H	 1.399683	 -2.700253	 2.522315
C	 0.125636	 -0.051774	 0.690317
H	 -0.369829	 -2.057582	 1.062974
H	 -0.525633	 -1.050322	 2.463433
C	 -1.180025	 0.697761	 0.509157
O	 1.107811	 0.285510	 0.111658
C	 -2.285431	 -0.137488	 -0.145671
H	 -0.964134	 1.569069	 -0.094212
H	 -1.516936	 1.040485	 1.483953
C	 -3.646545	 0.082747	 0.508954
H	 -2.348635	 0.118247	 -1.199806
H	 -2.034895	 -1.192387	 -0.096473
C	 -4.757412	 -0.737227	 -0.138149
H	 -3.900211	 1.137405	 0.459735
H	 -3.580878	 -0.166775	 1.564416
H	 -4.867876	 -0.486707	 -1.187777
H	 -4.549650	 -1.800049	 -0.072540
H	 -5.709585	 -0.556397	 0.346597
