24

H	 -3.436473	 1.252944	 -1.023892
O	 -3.458596	 0.315260	 -0.960865
C	 -3.176635	 -0.080824	 0.355601
C	 -1.763371	 0.265266	 0.799691
H	 -3.321825	 -1.153438	 0.379502
H	 -3.895468	 0.357385	 1.043382
C	 -0.673390	 -0.426948	 -0.013392
H	 -1.631049	 1.344913	 0.747560
H	 -1.664587	 -0.001624	 1.849167
C	 0.296952	 0.549958	 -0.672225
H	 -1.134430	 -1.049449	 -0.772239
H	 -0.120405	 -1.099905	 0.637640
C	 0.806265	 1.622044	 0.289170
H	 1.133347	 -0.007508	 -1.082791
H	 -0.192621	 1.031270	 -1.516331
C	 -0.255950	 2.611543	 0.771289
H	 1.617768	 2.170773	 -0.183280
H	 1.238763	 1.132010	 1.157175
C	 -0.823509	 3.519431	 -0.317178
H	 0.180838	 3.232036	 1.547808
H	 -1.067864	 2.064181	 1.243106
H	 -0.033098	 4.075598	 -0.811147
H	 -1.517337	 4.237745	 0.104568
H	 -1.357163	 2.959324	 -1.075530
