19

O	 1.200866	 1.416902	 -0.027124
C	 0.861201	 0.272604	 -0.014871
C	 -0.623822	 -0.118192	 -0.003701
C	 1.911817	 -0.823800	 -0.004506
C	 -0.895265	 -1.256382	 -1.002433
C	 -1.473582	 1.103419	 -0.370800
C	 -0.983833	 -0.581404	 1.422326
H	 -0.615234	 -0.971985	 -2.012702
H	 -1.954194	 -1.493134	 -1.010208
H	 -0.360472	 -2.164868	 -0.747762
H	 -1.227409	 1.468606	 -1.361693
H	 -2.526649	 0.839014	 -0.358522
H	 -1.314752	 1.915934	 0.325859
H	 -2.039612	 -0.827922	 1.472950
H	 -0.427570	 -1.463992	 1.720693
H	 -0.788956	 0.202572	 2.147047
H	 2.019272	 -1.231102	 -1.005515
H	 2.857816	 -0.394494	 0.295325
H	 1.655522	 -1.643842	 0.655090
