16

H	 -0.000342	 -0.223902	 -3.352295
C	 -0.027146	 0.371068	 -2.446756
C	 0.024493	 -0.518541	 -1.216015
H	 -0.932586	 0.964979	 -2.449855
H	 0.819708	 1.049865	 -2.473332
N	 -0.042516	 0.263377	 -0.000000
H	 -0.822211	 -1.197105	 -1.225584
H	 0.921114	 -1.142847	 -1.255206
C	 0.024493	 -0.518541	 1.216015
H	 0.682568	 0.950412	 -0.000000
C	 0.148945	 -2.001910	 0.911187
H	 0.893439	 -0.191517	 1.777652
H	 -0.841664	 -0.350780	 1.861656
H	 1.028650	 -2.194829	 0.309970
H	 0.222310	 -2.577450	 1.826654
H	 -0.717046	 -2.361828	 0.364239
