21

H	 -3.485191	 -2.299087	 0.970508
O	 -3.066446	 -1.726945	 0.354472
C	 -1.818368	 -1.317160	 0.847214
C	 -1.175688	 -0.398187	 -0.171891
H	 -1.935824	 -0.795315	 1.794661
H	 -1.177846	 -2.178511	 1.025078
C	 0.196029	 0.106276	 0.266738
H	 -1.842305	 0.440342	 -0.347134
H	 -1.093384	 -0.932542	 -1.112959
C	 1.330220	 -0.826136	 -0.155230
H	 0.359542	 1.097229	 -0.145561
H	 0.212134	 0.218135	 1.348778
C	 2.719700	 -0.407669	 0.328325
H	 1.339388	 -0.911200	 -1.239363
H	 1.119001	 -1.821953	 0.224128
C	 3.241564	 0.893452	 -0.276737
H	 3.418299	 -1.204729	 0.093035
H	 2.711776	 -0.323368	 1.411960
H	 3.254204	 0.841071	 -1.360784
H	 2.634460	 1.745075	 0.005842
H	 4.254264	 1.092401	 0.054971
