13

H	 -0.366580	 2.045936	 -0.305741
C	 0.351829	 1.335402	 0.083179
N	 -0.000018	 0.000080	 -0.334836
H	 1.327156	 1.599860	 -0.305475
H	 0.380566	 1.445403	 1.171445
C	 -1.049668	 0.003485	 -1.325090
C	 1.152413	 -0.750052	 -0.772382
H	 -1.336147	 -1.012946	 -1.563603
H	 -1.922093	 0.514157	 -0.937436
H	 -0.753816	 0.498321	 -2.254972
H	 1.889827	 -0.790447	 0.019307
H	 0.863560	 -1.765632	 -1.011728
H	 1.629645	 -0.317029	 -1.656605
