23

O	 1.847685	 1.294399	 -0.000190
C	 1.704209	 0.119472	 -0.000093
C	 0.380337	 -0.600947	 -0.000234
O	 2.715427	 -0.733672	 0.000025
C	 -0.824290	 0.329213	 -0.000115
H	 0.371455	 -1.255476	 -0.865660
H	 0.371410	 -1.255787	 0.864952
C	 -2.110049	 -0.386018	 -0.404203
H	 -0.636255	 1.157441	 -0.673876
H	 -0.939425	 0.764571	 0.986038
C	 -3.329748	 0.530920	 -0.409438
H	 -1.987040	 -0.822459	 -1.392959
H	 -2.291090	 -1.217393	 0.273497
C	 -4.614733	 -0.183742	 -0.813768
H	 -3.150411	 1.361147	 -1.086726
H	 -3.454531	 0.966128	 0.578076
H	 -4.533519	 -0.600818	 -1.812109
H	 -5.459802	 0.494897	 -0.807326
H	 -4.840263	 -0.998712	 -0.133918
C	 4.020999	 -0.192556	 0.000019
H	 4.182809	 0.412891	 -0.879449
H	 4.692590	 -1.035653	 0.000152
H	 4.182726	 0.413087	 0.879368
