16

O	 -1.756524	 -0.779996	 -0.238678
C	 -1.083277	 0.139568	 0.115197
C	 0.323299	 -0.082943	 0.642902
C	 -1.599016	 1.561081	 0.081414
C	 1.355627	 -0.005344	 -0.493127
H	 0.396251	 -1.044647	 1.143147
H	 0.528637	 0.693580	 1.371677
C	 2.786168	 -0.195604	 0.007473
H	 1.132807	 -0.760304	 -1.243899
H	 1.259610	 0.958506	 -0.981915
H	 3.495561	 -0.130713	 -0.811210
H	 2.912696	 -1.165395	 0.480041
H	 3.049284	 0.565503	 0.735850
H	 -1.457587	 2.045170	 1.043352
H	 -2.647278	 1.568054	 -0.182845
H	 -1.038496	 2.135251	 -0.651628
