12

H	 -2.644180	 -0.653737	 1.272255
C	 -2.092774	 -0.380414	 0.391915
O	 -0.808934	 -0.154049	 0.752536
F	 -2.163230	 -1.351640	 -0.507133
F	 -2.627232	 0.691260	 -0.169301
C	 0.085006	 0.250800	 -0.215074
C	 1.370439	 -0.548013	 -0.012993
Cl	 0.421658	 1.987697	 -0.091007
H	 -0.272219	 0.063284	 -1.212508
F	 2.278504	 -0.182266	 -0.881711
F	 1.116855	 -1.820856	 -0.205037
F	 1.858465	 -0.404697	 1.188482
