16

H	 -1.752232	 -2.214755	 -0.011938
C	 -1.343852	 -1.221619	 -0.018179
N	 -0.058800	 -1.097635	 -0.261688
C	 -2.148159	 -0.124236	 0.219734
C	 0.449026	 0.119242	 -0.273393
H	 -3.196988	 -0.237571	 0.417076
N	 -1.655094	 1.094230	 0.209506
C	 -0.370318	 1.215445	 -0.035100
C	 1.924033	 0.265863	 -0.538106
H	 0.033214	 2.210441	 -0.046812
C	 2.735576	 -0.926245	 -0.028472
H	 2.066761	 0.367510	 -1.607245
H	 2.282785	 1.178805	 -0.077618
H	 3.784951	 -0.800373	 -0.267011
H	 2.390611	 -1.844857	 -0.484685
H	 2.645443	 -1.028505	 1.047152
