29

O	 2.944223	 -1.926950	 -1.138387
C	 2.574127	 -2.072921	 -0.023620
C	 3.439555	 -1.981791	 1.207256
O	 1.317782	 -2.342573	 0.292610
C	 4.898782	 -1.668697	 0.900855
H	 2.990626	 -1.236088	 1.852192
H	 3.345143	 -2.925973	 1.734455
C	 5.096245	 -0.412065	 0.051901
H	 5.351649	 -2.520930	 0.406202
H	 5.430091	 -1.550725	 1.837232
C	 4.304538	 0.811077	 0.511826
H	 4.807838	 -0.647305	 -0.968221
H	 6.154509	 -0.163041	 0.015240
C	 4.435787	 1.078374	 2.008861
H	 4.645847	 1.684271	 -0.039455
H	 3.252987	 0.689037	 0.269168
C	 3.762889	 0.018753	 2.876723
H	 4.009445	 2.051995	 2.238281
H	 5.489364	 1.139326	 2.271778
C	 3.896754	 0.293680	 4.370802
H	 2.710015	 -0.043165	 2.615299
H	 4.189849	 -0.954616	 2.650637
H	 3.409063	 -0.476353	 4.957479
H	 3.447396	 1.245093	 4.635378
H	 4.938923	 0.327430	 4.670724
C	 0.824678	 -3.623490	 -0.043565
H	 -0.139967	 -3.792406	 0.411591
H	 1.544729	 -4.329140	 0.337866
H	 0.731980	 -3.727573	 -1.114467
