15

H	 -1.393741	 1.038477	 2.127972
C	 -1.064685	 0.569208	 1.224953
C	 -1.921159	 0.444511	 0.084752
C	 0.172226	 0.075988	 1.125868
H	 -2.921973	 0.830884	 0.132132
C	 -1.484709	 -0.146611	 -1.031788
H	 0.871422	 0.131401	 1.936543
N	 0.640204	 -0.530428	 -0.000115
H	 -2.096916	 -0.257381	 -1.902933
C	 -0.135447	 -0.683083	 -1.136289
C	 2.006991	 -1.033007	 -0.000020
O	 0.292911	 -1.220381	 -2.121207
H	 2.182444	 -1.636914	 -0.880881
H	 2.678769	 -0.195442	 -0.002236
H	 2.183828	 -1.633244	 0.883082
