13

H	 1.128311	 0.207724	 1.465118
C	 1.134565	 0.093781	 0.372499
C	 0.062554	 0.862911	 -0.350953
O	 1.948932	 -0.587720	 -0.146651
C	 -1.345994	 0.515580	 0.140951
H	 0.167646	 0.684419	 -1.413304
H	 0.255961	 1.917292	 -0.166699
C	 -1.770224	 -0.912061	 -0.191496
H	 -2.045883	 1.213504	 -0.303605
H	 -1.401605	 0.673974	 1.214387
H	 -1.758555	 -1.081011	 -1.262419
H	 -2.773647	 -1.108718	 0.166427
H	 -1.109421	 -1.642957	 0.261456
