27

H	 2.614283	 2.028610	 0.296620
O	 3.358864	 1.662087	 -0.142800
C	 3.565468	 0.338079	 0.273842
C	 2.533667	 -0.637565	 -0.272227
H	 4.548038	 0.064914	 -0.086598
H	 3.593945	 0.282242	 1.360360
C	 2.779905	 -2.093624	 0.116500
H	 1.550756	 -0.328606	 0.070685
H	 2.531903	 -0.550028	 -1.356077
C	 1.743611	 -3.047130	 -0.476590
H	 2.774997	 -2.181860	 1.197793
H	 3.772027	 -2.392705	 -0.217465
C	 1.984067	 -4.528543	 -0.180193
H	 0.755246	 -2.765947	 -0.121206
H	 1.726677	 -2.911151	 -1.554408
C	 1.829075	 -4.928020	 1.286142
H	 1.285330	 -5.112516	 -0.772872
H	 2.977326	 -4.806604	 -0.525554
C	 1.980452	 -6.429673	 1.515342
H	 0.852073	 -4.608862	 1.642616
H	 2.560677	 -4.405606	 1.895113
C	 1.830000	 -6.831512	 2.978824
H	 1.242794	 -6.959691	 0.919087
H	 2.952746	 -6.751664	 1.151983
H	 0.854689	 -6.551755	 3.363197
H	 1.940185	 -7.902427	 3.105738
H	 2.578496	 -6.346933	 3.597119
