22

O	 -1.184403	 2.460538	 0.964292
C	 -1.265005	 1.761613	 0.006984
C	 -0.028050	 1.151256	 -0.621869
C	 -2.597718	 1.429230	 -0.620843
C	 0.376695	 -0.140025	 0.100361
H	 0.771432	 1.877082	 -0.543661
H	 -0.202063	 0.946978	 -1.672990
C	 1.630207	 -0.772146	 -0.501001
H	 0.532746	 0.090702	 1.146612
H	 -0.440193	 -0.856282	 0.055993
C	 2.907848	 -0.545876	 0.309149
H	 1.772784	 -0.391628	 -1.509394
H	 1.468529	 -1.842059	 -0.599744
C	 3.373802	 0.906639	 0.372125
H	 3.699140	 -1.146831	 -0.127906
H	 2.764321	 -0.923458	 1.318191
H	 3.519798	 1.311927	 -0.623875
H	 4.316899	 0.983758	 0.900700
H	 2.661122	 1.540651	 0.885346
H	 -2.655905	 1.892426	 -1.600670
H	 -3.402262	 1.794650	 -0.001371
H	 -2.696344	 0.359304	 -0.766171
