11

O	 -0.294688	 1.318815	 -0.000872
C	 -0.448732	 0.145721	 -0.000187
C	 -1.780748	 -0.548101	 0.000195
O	 0.550743	 -0.719877	 0.000412
H	 -1.859389	 -1.183260	 -0.872613
H	 -2.570236	 0.185547	 -0.001342
H	 -1.860233	 -1.180337	 0.875064
C	 1.752926	 -0.320932	 0.628635
H	 2.159289	 0.557441	 0.149721
H	 2.432725	 -1.150736	 0.523835
H	 1.583523	 -0.106650	 1.673339
