25

H	 -1.540159	 -1.542221	 -3.040581
C	 -2.263049	 -1.198815	 -2.287993
C	 -2.008545	 -1.697072	 -0.891262
O	 -3.161506	 -0.499842	 -2.606614
C	 -0.573499	 -1.439445	 -0.422276
H	 -2.732915	 -1.244302	 -0.226716
H	 -2.192611	 -2.769083	 -0.905955
C	 -0.247837	 0.040196	 -0.230469
H	 -0.418522	 -1.966727	 0.512761
H	 0.121846	 -1.877275	 -1.134312
C	 1.181757	 0.280428	 0.247371
H	 -0.945074	 0.466907	 0.485692
H	 -0.409096	 0.576372	 -1.162101
C	 2.151032	 -0.811012	 -0.202643
H	 1.515939	 1.247397	 -0.115449
H	 1.191514	 0.341223	 1.333422
C	 3.580021	 -0.656538	 0.320835
H	 2.170545	 -0.847575	 -1.289412
H	 1.766632	 -1.772905	 0.124928
C	 4.327657	 0.562694	 -0.213579
H	 4.138806	 -1.549270	 0.057813
H	 3.561991	 -0.620783	 1.406976
H	 4.355973	 0.557257	 -1.298551
H	 3.867136	 1.491650	 0.100501
H	 5.351524	 0.571613	 0.142204
