16

H	 1.562451	 -1.804569	 -0.995178
C	 0.688304	 -2.358606	 -0.628348
C	 -0.614159	 -1.609938	 -0.690671
O	 0.815462	 -3.460763	 -0.220041
C	 -0.554654	 -0.292621	 0.086567
H	 -1.398330	 -2.254088	 -0.315193
H	 -0.820031	 -1.401689	 -1.738587
C	 -1.846385	 0.513195	 -0.016346
H	 -0.343156	 -0.503659	 1.130918
H	 0.273510	 0.308475	 -0.280177
C	 -3.089953	 -0.365049	 -0.098564
H	 -1.798267	 1.154820	 -0.891143
H	 -1.925398	 1.173265	 0.842889
H	 -3.055079	 -1.012299	 -0.968245
H	 -3.988403	 0.236438	 -0.170014
H	 -3.183055	 -0.995885	 0.779079
