24

H	 -3.436473	 1.252944	 -1.023892
O	 -3.458596	 0.315260	 -0.960865
C	 -3.176635	 -0.080824	 0.355601
C	 -1.763371	 0.265266	 0.799691
H	 -3.321825	 -1.153438	 0.379502
H	 -3.895468	 0.357385	 1.043382
C	 -0.673390	 -0.426948	 -0.013392
H	 -1.631049	 1.344913	 0.747560
H	 -1.664587	 -0.001624	 1.849167
C	 0.737842	 -0.043159	 0.423759
H	 -0.806103	 -0.190518	 -1.063345
H	 -0.797221	 -1.503753	 0.074146
C	 1.744704	 -1.178098	 0.247152
H	 1.057143	 0.827116	 -0.141536
H	 0.722270	 0.260538	 1.468451
C	 3.157206	 -0.869097	 0.746358
H	 1.789780	 -1.456979	 -0.803107
H	 1.376952	 -2.053119	 0.776033
C	 3.887153	 0.219463	 -0.036813
H	 3.743929	 -1.781520	 0.701449
H	 3.113326	 -0.589601	 1.795823
H	 3.941189	 -0.030073	 -1.091748
H	 4.901882	 0.338866	 0.325554
H	 3.395992	 1.181089	 0.050600
