17

O	 0.749854	 1.307668	 -0.000040
C	 0.576249	 0.131685	 -0.000108
C	 -0.766779	 -0.556801	 -0.000461
O	 1.568443	 -0.749345	 -0.000005
C	 -1.945214	 0.412366	 0.000161
H	 -0.796911	 -1.211249	 -0.867467
H	 -0.796854	 -1.212390	 0.865687
C	 -2.032038	 1.209013	 1.301077
H	 -2.864474	 -0.141681	 -0.156663
H	 -1.852656	 1.088956	 -0.842593
H	 -2.156984	 0.553884	 2.158777
H	 -2.875750	 1.891048	 1.281625
H	 -1.134477	 1.799008	 1.464676
C	 2.886820	 -0.232538	 0.000322
H	 3.059106	 0.369571	 -0.880203
H	 3.540187	 -1.091012	 0.000050
H	 3.059019	 0.368956	 0.881266
