27

H	 2.023555	 -5.292894	 3.157754
O	 1.471677	 -5.815805	 2.606552
C	 0.218820	 -5.202813	 2.452077
C	 0.252227	 -3.971013	 1.559755
H	 -0.424209	 -5.952147	 2.010497
H	 -0.201858	 -4.949183	 3.423237
C	 1.008613	 -4.167232	 0.247799
H	 -0.769398	 -3.667804	 1.351179
H	 0.712716	 -3.162862	 2.122996
C	 2.510807	 -4.356135	 0.454109
H	 0.837205	 -3.311312	 -0.396424
H	 0.608116	 -5.035729	 -0.272395
C	 3.308903	 -4.630832	 -0.821759
H	 2.916469	 -3.476941	 0.948766
H	 2.663323	 -5.185266	 1.139491
C	 3.009841	 -5.968591	 -1.496077
H	 3.103602	 -3.833348	 -1.530560
H	 4.371981	 -4.569805	 -0.599730
C	 3.483501	 -7.168232	 -0.679428
H	 3.486698	 -5.991078	 -2.473610
H	 1.943429	 -6.066499	 -1.675469
C	 4.787405	 -7.768073	 -1.195101
H	 3.610487	 -6.868801	 0.357294
H	 2.710250	 -7.931867	 -0.682378
H	 5.589371	 -7.037552	 -1.174452
H	 5.096164	 -8.614511	 -0.592342
H	 4.682460	 -8.112344	 -2.218729
