23

O	 1.745760	 1.471228	 0.401982
C	 1.408714	 0.632121	 1.165749
C	 0.092498	 -0.101580	 1.135773
O	 2.165403	 0.220555	 2.169965
C	 -0.824290	 0.329213	 -0.000115
H	 0.317402	 -1.161594	 1.078887
H	 -0.380311	 0.048253	 2.100887
C	 -2.146151	 -0.432825	 -0.000068
H	 -0.314744	 0.182621	 -0.945709
H	 -1.013059	 1.393947	 0.077336
C	 -3.366283	 0.483552	 0.000557
H	 -2.189286	 -1.084450	 -0.869996
H	 -2.188867	 -1.085083	 0.869399
C	 -4.687436	 -0.278003	 0.000108
H	 -3.325150	 1.134819	 -0.867957
H	 -3.325087	 1.133730	 0.869885
H	 -4.773783	 -0.912098	 -0.876078
H	 -5.531922	 0.401392	 0.000363
H	 -4.773901	 -0.912898	 0.875703
C	 3.433477	 0.826725	 2.317851
H	 4.040554	 0.659795	 1.440467
H	 3.887011	 0.361931	 3.178154
H	 3.331527	 1.889708	 2.478750
