22

O	 2.513433	 -3.068033	 2.222170
C	 2.388185	 -3.138714	 1.042870
C	 1.018597	 -3.070877	 0.396592
C	 3.580642	 -3.279893	 0.126965
C	 0.571414	 -1.616102	 0.205541
H	 0.322518	 -3.582103	 1.049457
H	 1.028135	 -3.582495	 -0.559975
C	 1.630207	 -0.772146	 -0.501001
H	 -0.352461	 -1.616193	 -0.358981
H	 0.347770	 -1.171430	 1.172262
C	 2.907848	 -0.545876	 0.309149
H	 1.199663	 0.189805	 -0.767949
H	 1.895532	 -1.256715	 -1.436629
C	 3.373802	 0.906639	 0.372125
H	 3.699140	 -1.146831	 -0.127906
H	 2.764321	 -0.923458	 1.318191
H	 3.519798	 1.311927	 -0.623875
H	 4.316899	 0.983758	 0.900700
H	 2.661122	 1.540651	 0.885346
H	 3.560015	 -4.260920	 -0.336888
H	 4.495772	 -3.165648	 0.687370
H	 3.539165	 -2.547388	 -0.671350
