24

H	 -3.498985	 1.253143	 -1.010443
O	 -3.458596	 0.315260	 -0.960865
C	 -3.176635	 -0.080824	 0.355601
C	 -1.763371	 0.265266	 0.799691
H	 -3.321825	 -1.153438	 0.379502
H	 -3.895468	 0.357385	 1.043382
C	 -0.673128	 -0.380952	 -0.050071
H	 -1.644661	 1.347695	 0.788711
H	 -1.651047	 -0.041203	 1.836922
C	 -0.613903	 -1.898738	 0.100888
H	 0.287050	 0.048725	 0.213271
H	 -0.843158	 -0.129230	 -1.094213
C	 -1.985019	 -2.561991	 -0.013943
H	 0.057058	 -2.301541	 -0.651742
H	 -0.176229	 -2.148966	 1.065089
C	 -2.955387	 -2.235339	 1.122514
H	 -1.857428	 -3.640273	 -0.076214
H	 -2.439867	 -2.257409	 -0.952539
C	 -2.543521	 -2.777320	 2.489177
H	 -3.930109	 -2.640234	 0.868048
H	 -3.083191	 -1.157824	 1.186128
H	 -2.402434	 -3.852953	 2.454729
H	 -3.306075	 -2.568983	 3.231032
H	 -1.619501	 -2.333866	 2.840090
