8

H   2.456683   -0.660438    -0.000757
C   1.741886   0.146482    -0.000178
O   0.464886   -0.454746    -0.000158
H   1.886526   0.753556    -0.885935
H   1.887001   0.752725    0.886091
C   -0.590998   0.343045    0.000118
O   -1.699443   -0.054298    0.000227
H   -0.340329   1.404368    0.000207
