18

H   2.866480   -0.465706    0.876907
C   2.405773   -0.024801    0.000000
N   0.988830   -0.304158    0.000000
H   2.866480   -0.465706    -0.876907
H   2.629928   1.045948    0.000000
C   0.327455   0.189839    -1.193532
C   0.327455   0.189839    1.193532
H   0.413489   1.277742    -1.280504
H   0.798271   -0.249223    -2.067490
C   -1.142832   -0.193885    -1.161881
H   0.798271   -0.249223    2.067490
H   0.413489   1.277742    1.280504
C   -1.142832   -0.193885    1.161881
H   -1.670657   0.242096    -1.999937
H   -1.238541   -1.276854    -1.216546
O   -1.760171   0.284527    0.000000
H   -1.670657   0.242096    1.999937
H   -1.238541   -1.276854    1.216546
