20

O	 -2.608834	 0.995323	 -0.293950
C	 -1.922978	 0.063265	 -0.045005
C	 -2.393398	 -1.363767	 -0.017866
O	 -0.637375	 0.157174	 0.243149
H	 -2.224743	 -1.783405	 0.965587
H	 -3.442198	 -1.403113	 -0.263033
H	 -1.822066	 -1.948694	 -0.727097
C	 0.162530	 -1.009518	 0.097799
C	 1.587210	 -0.664190	 0.477086
H	 0.096803	 -1.356267	 -0.924704
H	 -0.233803	 -1.785900	 0.736810
C	 2.256770	 0.342732	 -0.454344
H	 2.154716	 -1.590834	 0.479041
H	 1.598751	 -0.289614	 1.496104
C	 3.698146	 0.643205	 -0.057145
H	 2.235038	 -0.042575	 -1.470299
H	 1.683491	 1.262594	 -0.461300
H	 4.150202	 1.356548	 -0.736242
H	 4.305463	 -0.255904	 -0.069842
H	 3.749130	 1.061068	 0.942759
