25

H	 -4.311770	 2.550896	 -4.501635
C	 -3.568846	 2.527832	 -3.692674
C	 -3.571089	 1.270657	 -2.865996
O	 -2.852600	 3.452388	 -3.520929
C	 -3.524744	 1.550768	 -1.360983
H	 -4.438573	 0.682484	 -3.135920
H	 -2.684363	 0.709433	 -3.152442
C	 -4.789956	 2.214817	 -0.822038
H	 -3.361440	 0.612260	 -0.842453
H	 -2.661759	 2.173161	 -1.137207
C	 -5.641798	 2.853761	 -1.915610
H	 -4.510717	 2.970879	 -0.092996
H	 -5.387848	 1.484585	 -0.282859
C	 -6.900381	 3.527547	 -1.372262
H	 -5.037082	 3.575553	 -2.455684
H	 -5.927719	 2.092630	 -2.638262
C	 -7.827821	 4.111512	 -2.439380
H	 -6.614724	 4.314215	 -0.677756
H	 -7.459838	 2.800038	 -0.790848
C	 -7.244121	 5.287623	 -3.218572
H	 -8.743922	 4.435874	 -1.955707
H	 -8.114795	 3.326049	 -3.133643
H	 -6.941812	 6.086551	 -2.549005
H	 -6.377675	 4.999038	 -3.801388
H	 -7.976863	 5.694192	 -3.906144
