19

H	 0.710920	 4.653740	 -0.783690
N	 -0.073217	 4.042271	 -0.866462
C	 0.258557	 2.700580	 -0.413417
H	 -0.342503	 4.037224	 -1.828132
C	 -0.961768	 1.793374	 -0.463516
H	 0.608018	 2.773741	 0.611001
H	 1.066990	 2.246547	 -0.988086
C	 -0.678115	 0.376691	 0.025731
H	 -1.750414	 2.242479	 0.131252
H	 -1.332344	 1.753573	 -1.486049
C	 -1.900706	 -0.535531	 -0.022488
H	 -0.303852	 0.416940	 1.046153
H	 0.117533	 -0.061968	 -0.572094
C	 -3.220513	 0.226854	 0.028039
H	 -1.865036	 -1.134397	 -0.928236
H	 -1.857948	 -1.236381	 0.806820
H	 -3.309098	 0.911849	 -0.808725
H	 -4.066838	 -0.449485	 -0.008086
H	 -3.301685	 0.809374	 0.939860
