25

O	 2.868453	 1.353349	 -0.000734
C	 2.841259	 0.166180	 -0.000295
C	 1.542794	 -0.614730	 -0.000853
C	 4.113372	 -0.651103	 0.000743
C	 0.288398	 0.247429	 0.000314
H	 1.557171	 -1.273139	 -0.866508
H	 1.557484	 -1.274998	 0.863344
C	 0.251868	 1.228397	 1.168851
H	 -0.584347	 -0.394826	 0.030971
H	 0.228119	 0.788564	 -0.937062
C	 -1.001266	 2.098924	 1.181797
H	 0.315151	 0.678844	 2.105474
H	 1.131081	 1.867885	 1.132797
C	 -1.045450	 3.082451	 2.347754
H	 -1.880658	 1.460592	 1.218074
H	 -1.064998	 2.649253	 0.246274
C	 -2.300579	 3.948708	 2.353953
H	 -0.982993	 2.533151	 3.283333
H	 -0.167451	 3.721769	 2.311563
H	 -3.195774	 3.339858	 2.424448
H	 -2.300665	 4.634728	 3.193237
H	 -2.374072	 4.537441	 1.445637
H	 4.145311	 -1.294584	 -0.871587
H	 4.970080	 0.004978	 -0.000091
H	 4.145223	 -1.291980	 0.874988
