13

H	 -2.498963	 -0.741158	 -0.729149
O	 -2.346257	 -0.289210	 0.080372
C	 -1.183935	 0.486039	 -0.009831
C	 0.062853	 -0.375310	 0.027457
H	 -1.178881	 1.094526	 -0.908634
H	 -1.184406	 1.155156	 0.838676
O	 -0.242786	 -1.557805	 0.690586
H	 0.866265	 0.154920	 0.541539
H	 0.399368	 -0.571857	 -0.988270
C	 0.807705	 -2.463807	 0.773354
H	 1.652759	 -2.044127	 1.314673
H	 0.452548	 -3.334944	 1.304080
H	 1.148141	 -2.768589	 -0.213425
