18

H	 -3.962728	 -0.414018	 -0.841437
C	 -2.913157	 -0.265376	 -0.672674
C	 -2.420041	 1.011994	 -0.475686
C	 -2.058229	 -1.351050	 -0.652829
H	 -3.084222	 1.854207	 -0.491222
C	 -1.071222	 1.202203	 -0.258884
H	 -2.441636	 -2.341253	 -0.805702
C	 -0.707390	 -1.162217	 -0.435865
H	 -0.672582	 2.184207	 -0.104572
C	 -0.209972	 0.116062	 -0.238155
H	 -0.042592	 -2.000857	 -0.419890
C	 1.238974	 0.374429	 0.000004
O	 1.753032	 -0.389848	 0.945314
O	 1.871294	 1.181743	 -0.594636
C	 3.159147	 -0.374369	 1.094185
H	 3.640562	 -0.707300	 0.187117
H	 3.378191	 -1.051551	 1.903527
H	 3.504499	 0.619843	 1.334334
