16

H	 -2.925565	 0.180387	 2.091277
C	 -1.952408	 0.033679	 1.665181
C	 -1.622372	 -1.170916	 1.060317
C	 -1.011035	 1.035565	 1.708961
H	 -2.344154	 -1.964425	 1.016652
C	 -0.376716	 -1.363152	 0.513134
H	 -1.247917	 1.974451	 2.172716
C	 0.251855	 0.858181	 1.161190
H	 -0.111685	 -2.289940	 0.043569
C	 0.570713	 -0.345925	 0.560742
H	 0.961935	 1.657376	 1.211541
O	 1.760432	 -0.625184	 0.000000
C	 2.773565	 0.334879	 0.000000
H	 2.728295	 0.960928	 -0.884150
H	 3.706387	 -0.206610	 0.000000
H	 2.728295	 0.960928	 0.884150
