22

O	 -2.374409	 1.338660	 -0.336961
C	 -2.104891	 0.204655	 -0.107126
C	 -0.881910	 -0.448129	 -0.720509
C	 -2.949910	 -0.638219	 0.818225
C	 -0.409639	 0.322587	 -1.959783
H	 -1.155667	 -1.456889	 -1.002594
H	 -0.079617	 -0.503079	 0.007620
C	 0.813831	 -0.319502	 -2.610435
H	 -1.231506	 0.371437	 -2.662901
H	 -0.170950	 1.347257	 -1.685233
C	 1.364121	 0.440506	 -3.818523
H	 0.567445	 -1.335784	 -2.907829
H	 1.601393	 -0.402825	 -1.866521
C	 0.433832	 0.473422	 -5.028629
H	 2.301861	 -0.020456	 -4.112570
H	 1.607560	 1.457446	 -3.522037
H	 0.169170	 -0.530820	 -5.343339
H	 0.913066	 0.965819	 -5.866871
H	 -0.485434	 1.007278	 -4.820715
H	 -3.440322	 -1.417144	 0.243099
H	 -3.694377	 -0.025850	 1.303346
H	 -2.331085	 -1.129829	 1.560495
