11

H	 -1.835082	 1.385983	 0.000069
C	 -1.300516	 0.441153	 -0.000028
O	 -0.006604	 0.654344	 -0.000106
O	 -1.828920	 -0.612308	 0.000113
C	 0.852093	 -0.482521	 -0.000161
C	 0.043166	 -1.671385	 0.461294
H	 1.687793	 -0.288996	 0.657192
H	 1.240180	 -0.627039	 -0.998392
H	 -0.342144	 -1.511186	 1.460215
H	 0.669146	 -2.555622	 0.472586
H	 -0.792028	 -1.850915	 -0.203680
