24

H	 -3.436473	 1.252944	 -1.023892
O	 -3.458596	 0.315260	 -0.960865
C	 -3.176635	 -0.080824	 0.355601
C	 -1.763371	 0.265266	 0.799691
H	 -3.321825	 -1.153438	 0.379502
H	 -3.895468	 0.357385	 1.043382
C	 -0.673390	 -0.426948	 -0.013392
H	 -1.631049	 1.344913	 0.747560
H	 -1.664587	 -0.001624	 1.849167
C	 0.737842	 -0.043159	 0.423759
H	 -0.806103	 -0.190518	 -1.063345
H	 -0.797221	 -1.503753	 0.074146
C	 1.484928	 0.774256	 -0.628260
H	 0.679054	 0.514378	 1.353590
H	 1.305444	 -0.944896	 0.644109
C	 2.932552	 1.114931	 -0.270246
H	 0.938463	 1.694493	 -0.821624
H	 1.483235	 0.220384	 -1.563056
C	 3.090748	 2.058569	 0.919571
H	 3.402599	 1.568317	 -1.137582
H	 3.479560	 0.195951	 -0.076133
H	 2.548834	 2.984723	 0.756333
H	 4.133743	 2.310420	 1.074408
H	 2.723252	 1.618206	 1.838610
