20

O	 1.216069	 1.304886	 0.000821
C	 1.121787	 0.124983	 0.000110
C	 -0.170912	 -0.649867	 -0.000147
O	 2.167739	 -0.685178	 -0.000678
C	 -1.413045	 0.229353	 0.001137
H	 -0.152877	 -1.303435	 -0.866175
H	 -0.152278	 -1.305116	 0.864586
C	 -1.793315	 0.700196	 -1.399581
H	 -1.244527	 1.086368	 0.643528
H	 -2.238894	 -0.318054	 0.441437
C	 -3.035722	 1.584060	 -1.409632
H	 -0.960773	 1.245106	 -1.836830
H	 -1.960734	 -0.162820	 -2.038651
H	 -2.887196	 2.473443	 -0.806702
H	 -3.281769	 1.903145	 -2.415774
H	 -3.894433	 1.055299	 -1.010122
C	 3.449556	 -0.089977	 -0.000570
H	 3.585694	 0.522473	 -0.879546
H	 4.155805	 -0.904274	 -0.001389
H	 3.586173	 0.521118	 0.879272
