9

H	 0.052427	 -2.576505	 -0.164348
C	 -0.833020	 -1.939438	 -0.204087
N	 -0.537714	 -0.645117	 0.000000
O	 -1.917535	 -2.385459	 -0.408073
C	 -1.522613	 0.412524	 0.000000
H	 0.411899	 -0.414581	 0.158347
H	 -2.150256	 0.356137	 -0.880771
H	 -1.005621	 1.357208	 0.000000
H	 -2.150256	 0.356137	 0.880771
