27

H	 0.372786	 -3.063731	 -4.270100
O	 1.311417	 -3.054546	 -4.296892
C	 1.799065	 -1.830421	 -3.814203
C	 1.658666	 -1.673376	 -2.307448
H	 2.845903	 -1.802073	 -4.084955
H	 1.312159	 -1.000761	 -4.323160
C	 0.214485	 -1.611354	 -1.815164
H	 2.174607	 -2.497936	 -1.824682
H	 2.177171	 -0.762872	 -2.016704
C	 0.010137	 -2.342337	 -0.488987
H	 -0.439607	 -2.038747	 -2.567826
H	 -0.081613	 -0.570276	 -1.697819
C	 -1.403285	 -2.249821	 0.088884
H	 0.279323	 -3.388476	 -0.612914
H	 0.706082	 -1.935985	 0.239715
C	 -1.827159	 -0.853271	 0.540237
H	 -2.103590	 -2.596023	 -0.666262
H	 -1.495135	 -2.940869	 0.923852
C	 -3.276575	 -0.793450	 1.015659
H	 -1.691961	 -0.154821	 -0.282780
H	 -1.181430	 -0.507576	 1.341818
C	 -3.701939	 0.598680	 1.470557
H	 -3.930908	 -1.125652	 0.214368
H	 -3.415403	 -1.496857	 1.832365
H	 -3.605228	 1.319931	 0.665771
H	 -4.735124	 0.606446	 1.798546
H	 -3.090353	 0.944586	 2.297396
