15

H   -0.944757   -0.000069    1.678017
O   -0.042387   -0.000390    1.388199
C   -0.001487   0.000018    -0.026623
C   -0.688111   -1.259218    -0.559082
C   -0.686884   1.260226    -0.558366
C   1.480967   -0.000609    -0.382644
H   -0.637118   -1.310329    -1.641988
H   -1.738343   -1.275242    -0.276838
H   -0.216674   -2.145532    -0.148945
H   -0.637732   1.310752    -1.641473
H   -1.736593   1.278074    -0.274246
H   -0.213218   2.145873    -0.149530
H   1.622506   -0.000913    -1.458614
H   1.964983   -0.878485    0.030333
H   1.965590   0.877084    0.029895
