13

O	 0.395927	 1.296676	 -0.000076
C	 0.503051	 0.114301	 -0.000074
C	 -0.701422	 -0.805636	 -0.000109
C	 1.858118	 -0.556123	 0.000212
C	 -0.420834	 -2.194344	 -0.552235
H	 -1.071099	 -0.861512	 1.020505
H	 -1.488612	 -0.314852	 -0.566591
H	 0.345692	 -2.693719	 0.025078
H	 -1.319467	 -2.798926	 -0.524068
H	 -0.075525	 -2.142231	 -1.576089
H	 1.961106	 -1.191101	 -0.872843
H	 2.636688	 0.191085	 -0.000109
H	 1.961070	 -1.190284	 0.873873
