23

O	 -0.661489	 -1.654523	 1.661367
C	 -1.523129	 -1.436538	 0.878753
C	 -2.789244	 -2.244153	 0.783920
O	 -1.481217	 -0.452708	 0.001092
H	 -3.292492	 -2.208695	 1.740771
H	 -3.443818	 -1.877968	 0.009271
H	 -2.525724	 -3.274947	 0.588738
C	 -0.332055	 0.384012	 -0.000250
C	 0.892252	 -0.506059	 -0.000295
H	 -0.360822	 1.020205	 -0.874146
H	 -0.359817	 1.021310	 0.872861
C	 2.188199	 0.299473	 -0.001416
H	 0.857046	 -1.152781	 -0.871031
H	 0.857910	 -1.151798	 0.871202
C	 2.289584	 1.270254	 1.171798
H	 3.037077	 -0.379357	 0.022511
H	 2.268945	 0.854996	 -0.932463
C	 3.583940	 2.076262	 1.170392
H	 2.210790	 0.716092	 2.102793
H	 1.441904	 1.949223	 1.148849
H	 4.450211	 1.425748	 1.227409
H	 3.624198	 2.754669	 2.014578
H	 3.675517	 2.668189	 0.265909
