27

H	 2.591676	 2.013956	 0.335017
O	 3.341076	 1.666752	 -0.126416
C	 3.569581	 0.339145	 0.272707
C	 2.539767	 -0.640285	 -0.279495
H	 4.553106	 0.084646	 -0.100901
H	 3.608576	 0.269204	 1.359154
C	 1.115811	 -0.397273	 0.226630
H	 2.556196	 -0.582511	 -1.364741
H	 2.852081	 -1.648031	 -0.010655
C	 1.083779	 0.251055	 1.613520
H	 0.580947	 -1.342498	 0.255541
H	 0.584962	 0.242123	 -0.478857
C	 -0.317652	 0.594558	 2.131533
H	 1.580354	 -0.404443	 2.326670
H	 1.672711	 1.165306	 1.581840
C	 -1.212855	 -0.614072	 2.418419
H	 -0.211329	 1.172318	 3.047342
H	 -0.814157	 1.249827	 1.417430
C	 -2.559964	 -0.225926	 3.031671
H	 -0.694021	 -1.292845	 3.093837
H	 -1.391866	 -1.172926	 1.503029
C	 -3.458055	 -1.430042	 3.313095
H	 -2.390115	 0.321125	 3.956536
H	 -3.075591	 0.459945	 2.362647
H	 -2.983561	 -2.119711	 4.005508
H	 -4.403717	 -1.122642	 3.748827
H	 -3.677196	 -1.977947	 2.400877
