10

H	 1.145899	 -1.219896	 0.245458
O	 1.305301	 -0.562658	 -0.408057
C	 0.706474	 0.636793	 -0.025501
C	 -0.793473	 0.591216	 0.050087
H	 1.004217	 1.376092	 -0.759727
H	 1.096421	 0.976808	 0.932116
C	 -1.534243	 -0.493009	 -0.013340
H	 -1.266611	 1.552628	 0.164437
H	 -1.101195	 -1.466332	 -0.144046
H	 -2.604242	 -0.437780	 0.050785
