27

H	 2.999329	 -2.773721	 2.586965
O	 3.727702	 -2.729807	 1.995885
C	 3.384005	 -3.296084	 0.758761
C	 2.433691	 -2.434648	 -0.059478
H	 4.314655	 -3.418886	 0.221368
H	 2.960421	 -4.288553	 0.900296
C	 1.049587	 -2.263145	 0.562369
H	 2.891156	 -1.461092	 -0.208041
H	 2.332702	 -2.889334	 -1.042056
C	 0.113298	 -1.420414	 -0.302504
H	 1.150097	 -1.803394	 1.539881
H	 0.602453	 -3.242917	 0.721751
C	 -1.311023	 -1.277304	 0.237018
H	 0.546218	 -0.432400	 -0.439011
H	 0.062306	 -1.866797	 -1.291751
C	 -2.041121	 -0.006551	 -0.194127
H	 -1.888548	 -2.136293	 -0.093331
H	 -1.289731	 -1.328757	 1.323321
C	 -3.489218	 0.042606	 0.286507
H	 -2.022185	 0.066287	 -1.279394
H	 -1.518764	 0.869305	 0.178730
C	 -4.219984	 1.311773	 -0.139038
H	 -4.022855	 -0.824300	 -0.093339
H	 -3.510372	 -0.038577	 1.370031
H	 -4.244251	 1.405725	 -1.219696
H	 -5.244345	 1.313233	 0.215630
H	 -3.732090	 2.196311	 0.257073
