23

O	 1.351389	 2.155296	 0.053495
C	 0.265486	 2.615147	 0.155427
C	 -1.021464	 1.830682	 0.151666
O	 0.037551	 3.911495	 0.289378
C	 -0.824290	 0.329213	 -0.000115
H	 -1.544060	 2.067371	 1.072709
H	 -1.637601	 2.229029	 -0.647795
C	 -2.146151	 -0.432825	 -0.000068
H	 -0.191502	 -0.031052	 0.803043
H	 -0.284912	 0.130814	 -0.919353
C	 -3.366283	 0.483552	 0.000557
H	 -2.189286	 -1.084450	 -0.869996
H	 -2.188867	 -1.085083	 0.869399
C	 -4.687436	 -0.278003	 0.000108
H	 -3.325150	 1.134819	 -0.867957
H	 -3.325087	 1.133730	 0.869885
H	 -4.773783	 -0.912098	 -0.876078
H	 -5.531922	 0.401392	 0.000363
H	 -4.773901	 -0.912898	 0.875703
C	 1.160599	 4.769224	 0.309049
H	 1.811721	 4.525997	 1.135544
H	 0.770645	 5.767532	 0.423782
H	 1.717079	 4.690003	 -0.613051
