12

H	 -2.644180	 -0.653737	 1.272255
C	 -2.092774	 -0.380414	 0.391915
O	 -0.808934	 -0.154049	 0.752536
F	 -2.163230	 -1.351640	 -0.507133
F	 -2.627232	 0.691260	 -0.169301
C	 -0.550237	 0.828116	 1.684055
C	 -1.459172	 0.571338	 2.883713
Cl	 -0.862306	 2.442026	 1.018136
H	 0.469295	 0.813997	 2.027571
F	 -1.251320	 1.466274	 3.815866
F	 -1.180037	 -0.608007	 3.386252
F	 -2.722941	 0.589533	 2.559975
