20

O	 1.216069	 1.304886	 0.000821
C	 1.121787	 0.124983	 0.000110
C	 -0.170912	 -0.649867	 -0.000147
O	 2.167739	 -0.685178	 -0.000678
C	 -1.413045	 0.229353	 0.001137
H	 -0.152877	 -1.303435	 -0.866175
H	 -0.152278	 -1.305116	 0.864586
C	 -2.635704	 -0.492763	 0.559674
H	 -1.614984	 0.565414	 -1.009716
H	 -1.217953	 1.124092	 0.581589
C	 -3.886921	 0.378632	 0.563483
H	 -2.824161	 -1.390076	 -0.023897
H	 -2.427309	 -0.827255	 1.572552
H	 -4.141464	 0.700920	 -0.440471
H	 -4.738089	 -0.159231	 0.964598
H	 -3.741808	 1.267742	 1.167640
C	 3.449556	 -0.089977	 -0.000570
H	 3.585694	 0.522473	 -0.879546
H	 4.155805	 -0.904274	 -0.001389
H	 3.586173	 0.521118	 0.879272
