22

H	 2.575485	 -2.169426	 4.146168
C	 2.244601	 -2.167053	 3.114365
C	 0.992867	 -1.313830	 2.941665
H	 3.061449	 -1.791210	 2.507290
H	 2.064235	 -3.196571	 2.823542
C	 0.492374	 -1.283118	 1.505165
H	 1.187616	 -0.296715	 3.263092
H	 0.204997	 -1.696234	 3.586340
N	 -0.681156	 -0.447464	 1.370091
H	 1.269330	 -0.878244	 0.863616
H	 0.312043	 -2.306383	 1.162392
C	 -1.215959	 -0.382435	 0.027143
H	 -1.390515	 -0.758189	 2.000630
C	 -2.451944	 0.502410	 -0.038737
H	 -0.447323	 0.026831	 -0.621607
H	 -1.458095	 -1.373106	 -0.369113
C	 -3.752217	 -0.292550	 0.005776
H	 -2.407325	 1.093801	 -0.946480
H	 -2.431979	 1.206234	 0.790023
H	 -3.817783	 -0.982946	 -0.828547
H	 -4.612613	 0.364348	 -0.042306
H	 -3.830160	 -0.871666	 0.919868
