27

H	 2.614283	 2.028610	 0.296620
O	 3.358864	 1.662087	 -0.142800
C	 3.565468	 0.338079	 0.273842
C	 2.533667	 -0.637565	 -0.272227
H	 4.548038	 0.064914	 -0.086598
H	 3.593945	 0.282242	 1.360360
C	 1.114816	 -0.402372	 0.240993
H	 2.544552	 -0.580764	 -1.356576
H	 2.850574	 -1.642962	 -0.005497
C	 0.113298	 -1.420414	 -0.302504
H	 0.796373	 0.598427	 -0.031033
H	 1.113377	 -0.446476	 1.328807
C	 -1.143954	 -1.608006	 0.548603
H	 -0.175482	 -1.133721	 -1.310790
H	 0.612716	 -2.381041	 -0.393310
C	 -2.075111	 -0.398112	 0.601953
H	 -1.699586	 -2.454205	 0.153954
H	 -0.854232	 -1.883628	 1.560160
C	 -3.360649	 -0.667594	 1.379887
H	 -2.327797	 -0.096059	 -0.412139
H	 -1.564002	 0.447204	 1.052743
C	 -4.290937	 0.539487	 1.438302
H	 -3.885202	 -1.504469	 0.927049
H	 -3.109730	 -0.977672	 2.390804
H	 -4.586223	 0.854534	 0.442918
H	 -5.193550	 0.313582	 1.994507
H	 -3.808267	 1.383155	 1.920594
