18

H	 2.867672	 -0.456275	 0.875795
C	 2.403497	 -0.020426	 0.000000
N	 0.989899	 -0.304564	 0.000000
H	 2.867672	 -0.456275	 -0.875795
H	 2.620366	 1.051270	 0.000000
C	 0.245327	 0.591562	 -0.860313
C	 0.427662	 -0.315562	 1.334667
H	 0.345120	 1.631995	 -0.535837
H	 0.635762	 0.523765	 -1.869120
C	 -1.222696	 0.210583	 -0.862604
H	 0.951882	 -1.048945	 1.936389
H	 0.541169	 0.656642	 1.824239
C	 -1.045046	 -0.673233	 1.275978
H	 -1.800008	 0.928510	 -1.428216
H	 -1.343588	 -0.768291	 -1.322267
O	 -1.742348	 0.196137	 0.433891
H	 -1.493946	 -0.594161	 2.256215
H	 -1.156745	 -1.697842	 0.926980
