11

H	 -1.835082	 1.385983	 0.000069
C	 -1.300516	 0.441153	 -0.000028
O	 -0.006604	 0.654344	 -0.000106
O	 -1.828920	 -0.612308	 0.000113
C	 0.717217	 0.336510	 1.185173
C	 2.170444	 0.666594	 0.940475
H	 0.578178	 -0.711638	 1.408806
H	 0.310741	 0.909023	 2.006738
H	 2.562909	 0.089162	 0.113122
H	 2.750518	 0.435644	 1.825931
H	 2.294127	 1.717972	 0.714031
