17

O	 0.623971	 1.347241	 -0.000777
C	 0.485107	 0.171416	 -0.000134
C	 1.606966	 -0.836201	 0.000174
O	 -0.695554	 -0.422406	 0.000602
C	 2.988788	 -0.202529	 -0.000115
H	 1.465110	 -1.474645	 -0.864821
H	 1.465209	 -1.474077	 0.865596
H	 3.131767	 0.419673	 -0.873407
H	 3.750876	 -0.972315	 0.000098
H	 3.131883	 0.420264	 0.872742
C	 -0.731714	 -1.825607	 0.219703
C	 -2.177319	 -2.262496	 0.176771
H	 -0.278964	 -2.045294	 1.176313
H	 -0.145595	 -2.317415	 -0.543784
H	 -2.754348	 -1.762929	 0.944784
H	 -2.241111	 -3.331695	 0.341018
H	 -2.620215	 -2.036671	 -0.785111
