18

H	 -3.135461	 -1.215070	 0.001379
O	 -2.310168	 -0.871793	 -0.309793
C	 -2.026376	 0.340750	 0.341611
C	 -0.673256	 0.843270	 -0.132153
H	 -2.792215	 1.080697	 0.115987
H	 -2.013526	 0.200402	 1.421792
C	 0.486613	 -0.083066	 0.235839
H	 -0.715586	 0.970948	 -1.210718
H	 -0.508072	 1.829858	 0.297090
C	 1.856665	 0.556826	 0.004947
H	 0.408870	 -0.997512	 -0.343176
H	 0.397271	 -0.370690	 1.282802
C	 3.015695	 -0.366752	 0.378209
H	 1.947556	 0.843849	 -1.040555
H	 1.929553	 1.477273	 0.581062
H	 2.990294	 -1.281857	 -0.206452
H	 3.974077	 0.112219	 0.202043
H	 2.973023	 -0.645043	 1.427611
