22

O	 -2.374409	 1.338660	 -0.336961
C	 -2.104891	 0.204655	 -0.107126
C	 -0.881910	 -0.448129	 -0.720509
C	 -2.949910	 -0.638219	 0.818225
C	 -0.039328	 -1.153642	 0.349608
H	 -0.294894	 0.331355	 -1.189474
H	 -1.178123	 -1.158933	 -1.484630
C	 1.209780	 -1.809487	 -0.235286
H	 0.232164	 -0.424973	 1.102976
H	 -0.639447	 -1.910982	 0.848198
C	 2.058613	 -2.578232	 0.778825
H	 1.822310	 -1.048174	 -0.711928
H	 0.908072	 -2.494242	 -1.023123
C	 2.717409	 -1.709388	 1.847459
H	 2.833380	 -3.113134	 0.238527
H	 1.445512	 -3.337309	 1.257617
H	 3.332477	 -0.937437	 1.396491
H	 3.355907	 -2.307473	 2.487291
H	 1.987584	 -1.221367	 2.481865
H	 -3.440322	 -1.417144	 0.243099
H	 -3.694377	 -0.025850	 1.303346
H	 -2.331085	 -1.129829	 1.560495
