19

H	 3.893188	 0.355400	 -0.101367
N	 3.092854	 -0.246221	 -0.068770
C	 1.865559	 0.531981	 0.018834
H	 3.199514	 -0.826043	 0.741946
C	 0.645745	 -0.382037	 -0.029944
H	 1.841966	 1.207024	 -0.831236
H	 1.815756	 1.155410	 0.915079
C	 -0.679275	 0.379305	 0.025956
H	 0.698998	 -0.976915	 -0.937203
H	 0.693479	 -1.083846	 0.802235
C	 -0.711816	 1.453166	 1.115056
H	 -1.492969	 -0.324566	 0.194231
H	 -0.873757	 0.843828	 -0.939571
C	 -2.039134	 2.208626	 1.169972
H	 -0.519058	 0.991191	 2.080788
H	 0.098636	 2.159509	 0.948018
H	 -2.866503	 1.533482	 1.369864
H	 -2.031349	 2.962029	 1.951590
H	 -2.243902	 2.710917	 0.228608
