19

H	 3.893188	 0.355400	 -0.101367
N	 3.092854	 -0.246221	 -0.068770
C	 1.865559	 0.531981	 0.018834
H	 3.199514	 -0.826043	 0.741946
C	 0.645745	 -0.382037	 -0.029944
H	 1.841966	 1.207024	 -0.831236
H	 1.815756	 1.155410	 0.915079
C	 -0.679275	 0.379305	 0.025956
H	 0.698998	 -0.976915	 -0.937203
H	 0.693479	 -1.083846	 0.802235
C	 -1.691106	 -0.094471	 -1.019084
H	 -0.490773	 1.442405	 -0.115943
H	 -1.116444	 0.277722	 1.018131
C	 -3.012142	 0.671784	 -0.962271
H	 -1.257014	 0.007322	 -2.011262
H	 -1.883446	 -1.155975	 -0.878123
H	 -2.857287	 1.733347	 -1.133791
H	 -3.707780	 0.313614	 -1.714870
H	 -3.488586	 0.560911	 0.007832
