16

H	 -2.714867	 -0.736094	 1.292299
C	 -2.694279	 -0.735743	 0.204311
O	 -1.398713	 -0.586909	 -0.280143
H	 -3.069082	 -1.684884	 -0.153176
H	 -3.349305	 0.057846	 -0.152879
C	 -0.782442	 0.603790	 0.096280
C	 0.646876	 0.602720	 -0.392857
H	 -1.308844	 1.455324	 -0.336716
H	 -0.791060	 0.718911	 1.178259
O	 1.392611	 -0.295398	 0.366430
H	 0.665373	 0.328232	 -1.445625
H	 1.058150	 1.608695	 -0.300330
C	 2.706965	 -0.449871	 -0.062409
H	 2.756559	 -0.644779	 -1.131878
H	 3.305899	 0.433456	 0.155466
H	 3.125548	 -1.294566	 0.467107
