25

O	 2.566050	 1.828146	 -1.324644
C	 2.378817	 0.892258	 -2.031162
C	 1.087164	 0.100652	 -2.002413
C	 3.427726	 0.425432	 -3.015077
C	 0.061415	 0.603814	 -0.996682
H	 0.675843	 0.108691	 -3.009298
H	 1.343831	 -0.937602	 -1.804536
C	 -1.221298	 -0.223057	 -1.003398
H	 -0.167860	 1.641296	 -1.211573
H	 0.500815	 0.594187	 -0.005739
C	 -2.258482	 0.271340	 0.000669
H	 -1.655097	 -0.210884	 -2.000867
H	 -0.983435	 -1.262659	 -0.789133
C	 -3.544441	 -0.550271	 -0.000253
H	 -2.497076	 1.310377	 -0.212844
H	 -1.826053	 0.258795	 0.998153
C	 -4.804551	 0.308747	 0.000556
H	 -3.553737	 -1.201524	 -0.870151
H	 -3.553831	 -1.203282	 0.868313
H	 -4.842050	 0.949078	 -0.874436
H	 -5.698404	 -0.304480	 -0.000254
H	 -4.842277	 0.947103	 0.876982
H	 3.031892	 0.451642	 -4.024371
H	 4.298765	 1.059008	 -2.949779
H	 3.706583	 -0.601305	 -2.805099
