14

H	 2.837865	 -0.433055	 -0.259618
O	 2.006197	 -0.870411	 -0.155764
C	 1.044096	 0.047713	 -0.161265
C	 -0.318151	 -0.570512	 0.000144
O	 1.275405	 1.201000	 -0.281243
C	 -1.454884	 0.441630	 -0.000560
H	 -0.436679	 -1.296675	 -0.797684
H	 -0.302079	 -1.144282	 0.921247
C	 -2.822577	 -0.232186	 0.000063
H	 -1.359760	 1.084704	 -0.867077
H	 -1.359641	 1.085996	 0.864983
H	 -2.954352	 -0.858985	 -0.875745
H	 -3.615886	 0.505352	 0.000019
H	 -2.953878	 -0.858359	 0.876394
