27

H	 1.179365	 -5.448648	 -1.353414
O	 2.072120	 -5.241920	 -1.588623
C	 2.095104	 -4.091818	 -2.395339
C	 1.803617	 -2.809910	 -1.623020
H	 3.091694	 -4.046851	 -2.815409
H	 1.398495	 -4.195367	 -3.226479
C	 0.395917	 -2.750077	 -1.024967
H	 2.541194	 -2.709187	 -0.831059
H	 1.945862	 -1.967616	 -2.298057
C	 0.115918	 -1.429151	 -0.302766
H	 0.266894	 -3.576872	 -0.332053
H	 -0.340209	 -2.886960	 -1.817256
C	 -1.309753	 -1.282496	 0.241564
H	 0.826627	 -1.309501	 0.512969
H	 0.306773	 -0.610120	 -0.993029
C	 -2.037799	 -0.007733	 -0.193645
H	 -1.890610	 -2.142323	 -0.085726
H	 -1.285946	 -1.330893	 1.329189
C	 -3.489788	 0.042957	 0.286558
H	 -2.017067	 0.064384	 -1.280144
H	 -1.513726	 0.868678	 0.179924
C	 -4.216917	 1.317354	 -0.141063
H	 -4.025645	 -0.823308	 -0.095450
H	 -3.513059	 -0.038752	 1.371301
H	 -4.239342	 1.411634	 -1.223113
H	 -5.243387	 1.322503	 0.212445
H	 -3.726170	 2.201406	 0.256408
