16

H	 -0.000342	 -0.223902	 -3.352295
C	 -0.027146	 0.371068	 -2.446756
C	 0.024493	 -0.518541	 -1.216015
H	 -0.932586	 0.964979	 -2.449855
H	 0.819708	 1.049865	 -2.473332
N	 -0.042516	 0.263377	 -0.000000
H	 -0.822211	 -1.197105	 -1.225584
H	 0.921114	 -1.142847	 -1.255206
C	 0.024493	 -0.518541	 1.216015
H	 0.682568	 0.950412	 -0.000000
C	 -0.048930	 0.369378	 2.446870
H	 -0.813391	 -1.208029	 1.218073
H	 0.928776	 -1.131203	 1.262271
H	 -0.961990	 0.951501	 2.442809
H	 -0.021959	 -0.225890	 3.352208
H	 0.788799	 1.059074	 2.480957
