10

H	 2.176198	 -0.647276	 -0.247937
O	 1.342438	 -0.550768	 0.172984
C	 0.700177	 0.619554	 -0.266242
C	 -0.713111	 0.588314	 0.266177
H	 0.678228	 0.660360	 -1.351036
H	 1.210217	 1.504849	 0.104554
O	 -1.421673	 -0.521378	 -0.196983
H	 -1.244794	 1.469161	 -0.069059
H	 -0.685100	 0.604721	 1.352683
H	 -0.933408	 -1.297830	 0.014544
