22

O	 -2.374409	 1.338660	 -0.336961
C	 -2.104891	 0.204655	 -0.107126
C	 -0.881910	 -0.448129	 -0.720509
C	 -2.949910	 -0.638219	 0.818225
C	 0.399795	 0.286200	 -0.307186
H	 -0.993344	 -0.406697	 -1.796602
H	 -0.822408	 -1.489763	 -0.423315
C	 1.650173	 -0.339179	 -0.921970
H	 0.308334	 1.322990	 -0.605398
H	 0.493279	 0.278911	 0.776099
C	 2.964556	 0.317877	 -0.497021
H	 1.567997	 -0.309010	 -2.005629
H	 1.685081	 -1.390257	 -0.648801
C	 3.145940	 1.753590	 -0.983548
H	 3.784402	 -0.284390	 -0.875748
H	 3.045339	 0.290535	 0.586519
H	 3.064116	 1.811488	 -2.064077
H	 4.123349	 2.131293	 -0.706452
H	 2.407120	 2.423049	 -0.560170
H	 -3.440322	 -1.417144	 0.243099
H	 -3.694377	 -0.025850	 1.303346
H	 -2.331085	 -1.129829	 1.560495
