27

H	 0.372786	 -3.063731	 -4.270100
O	 1.311417	 -3.054546	 -4.296892
C	 1.799065	 -1.830421	 -3.814203
C	 1.658666	 -1.673376	 -2.307448
H	 2.845903	 -1.802073	 -4.084955
H	 1.312159	 -1.000761	 -4.323160
C	 0.214485	 -1.611354	 -1.815164
H	 2.174607	 -2.497936	 -1.824682
H	 2.177171	 -0.762872	 -2.016704
C	 -0.772611	 -2.238982	 -2.798302
H	 -0.060029	 -0.576739	 -1.638482
H	 0.138157	 -2.123393	 -0.857418
C	 -2.226299	 -2.270908	 -2.322880
H	 -0.716813	 -1.710098	 -3.746666
H	 -0.455733	 -3.258071	 -3.002053
C	 -2.495906	 -3.183773	 -1.128002
H	 -2.520495	 -1.259138	 -2.057742
H	 -2.867943	 -2.563627	 -3.150988
C	 -3.936676	 -3.105413	 -0.629552
H	 -1.822025	 -2.918890	 -0.316098
H	 -2.270624	 -4.214029	 -1.386504
C	 -4.210262	 -4.018409	 0.561028
H	 -4.166352	 -2.079203	 -0.356201
H	 -4.611602	 -3.361560	 -1.441910
H	 -3.572700	 -3.766482	 1.402030
H	 -5.239640	 -3.936483	 0.890841
H	 -4.026109	 -5.057463	 0.308425
