19

O	 -2.071633	 -1.227563	 -0.223463
C	 -1.652164	 -0.152425	 0.058082
C	 -0.327811	 0.006324	 0.778296
C	 -2.402515	 1.108629	 -0.298924
C	 0.843231	 -0.001575	 -0.211665
H	 -0.319484	 0.928173	 1.350354
H	 -0.227804	 -0.823091	 1.466705
C	 1.927376	 -1.006561	 0.166307
H	 1.281579	 0.991418	 -0.270897
H	 0.460552	 -0.231131	 -1.200212
C	 3.088179	 -1.026888	 -0.822271
H	 2.302577	 -0.775533	 1.159471
H	 1.488190	 -1.997931	 0.228283
H	 3.570695	 -0.056918	 -0.880330
H	 2.748145	 -1.286376	 -1.818971
H	 3.838349	 -1.751995	 -0.529240
H	 -3.240910	 0.874416	 -0.936711
H	 -1.747554	 1.818823	 -0.790984
H	 -2.760419	 1.579708	 0.610998
