16

H	 -2.406498	 0.775454	 2.256171
C	 -2.158673	 -0.183458	 1.806776
O	 -0.887441	 -0.169988	 1.248808
H	 -2.174299	 -0.942042	 2.575668
H	 -2.918658	 -0.422153	 1.064932
C	 -0.718530	 0.758693	 0.228682
C	 0.718529	 0.758687	 -0.228709
H	 -1.358332	 0.509837	 -0.617896
H	 -0.985500	 1.756934	 0.568789
O	 1.401606	 -0.295166	 0.366636
H	 0.748705	 0.673477	 -1.312803
H	 1.176496	 1.708671	 0.046552
C	 2.714315	 -0.441627	 -0.061017
H	 2.765292	 -0.641548	 -1.128869
H	 3.305661	 0.447341	 0.150952
H	 3.143725	 -1.278506	 0.470147
