16

H	 -1.903591	 0.639431	 -2.124864
C	 -1.404606	 -0.254883	 -1.756956
O	 -1.392607	 -0.295399	 -0.366433
H	 -1.944804	 -1.124918	 -2.103896
H	 -0.395963	 -0.280702	 -2.167321
C	 -0.719715	 0.768384	 0.229244
C	 0.719720	 0.768376	 -0.229267
H	 -1.185038	 1.714362	 -0.050570
H	 -0.750528	 0.687237	 1.313896
O	 1.392611	 -0.295398	 0.366430
H	 0.750534	 0.687200	 -1.313918
H	 1.185043	 1.714359	 0.050526
C	 2.706965	 -0.449871	 -0.062409
H	 2.756559	 -0.644779	 -1.131878
H	 3.305899	 0.433456	 0.155466
H	 3.125548	 -1.294566	 0.467107
