29

O	 -0.427360	 -1.392182	 -0.665010
C	 0.595354	 -1.297218	 -0.076775
C	 1.246364	 -0.005813	 0.348416
O	 1.317782	 -2.342573	 0.292610
C	 0.453207	 1.232821	 -0.049003
H	 1.394842	 -0.066917	 1.419758
H	 2.239873	 0.009843	 -0.088647
C	 -0.998367	 1.217982	 0.432195
H	 0.481498	 1.345443	 -1.127236
H	 0.951413	 2.105557	 0.354893
C	 -2.047279	 1.359606	 -0.669682
H	 -1.126316	 2.032855	 1.138435
H	 -1.184669	 0.303645	 0.991266
C	 -1.802728	 0.423331	 -1.850093
H	 -3.031622	 1.160483	 -0.252200
H	 -2.071659	 2.382527	 -1.033788
C	 -0.558053	 0.777368	 -2.658929
H	 -2.670653	 0.437239	 -2.504961
H	 -1.713984	 -0.597736	 -1.486208
C	 -0.321516	 -0.161298	 -3.837375
H	 -0.645359	 1.797308	 -3.023374
H	 0.310758	 0.761183	 -2.006425
H	 0.568693	 0.117437	 -4.389479
H	 -1.158320	 -0.141277	 -4.527640
H	 -0.195670	 -1.185676	 -3.502679
C	 0.824678	 -3.623490	 -0.043565
H	 -0.139967	 -3.792406	 0.411591
H	 1.544729	 -4.329140	 0.337866
H	 0.731980	 -3.727573	 -1.114467
