16

H	 -3.230071	 0.617454	 -0.566582
C	 -2.479425	 0.091230	 -1.151819
O	 -1.401606	 -0.295183	 -0.366624
H	 -2.924411	 -0.802034	 -1.565286
H	 -2.166836	 0.736990	 -1.970456
C	 -0.718530	 0.758693	 0.228682
C	 0.718529	 0.758687	 -0.228709
H	 -1.176498	 1.708665	 -0.046615
H	 -0.748705	 0.673525	 1.312779
O	 1.401606	 -0.295166	 0.366636
H	 0.748705	 0.673477	 -1.312803
H	 1.176496	 1.708671	 0.046552
C	 2.714315	 -0.441627	 -0.061017
H	 2.765292	 -0.641548	 -1.128869
H	 3.305661	 0.447341	 0.150952
H	 3.143725	 -1.278506	 0.470147
