16

O	 -1.510770	 1.240811	 -0.054933
C	 -1.081510	 0.147522	 0.122720
C	 0.327029	 -0.064006	 0.641890
C	 -1.903028	 -1.084121	 -0.174656
C	 1.349460	 -0.017068	 -0.500215
H	 0.399029	 -1.014606	 1.159950
H	 0.538021	 0.726928	 1.350471
C	 1.843388	 1.397384	 -0.781470
H	 2.196685	 -0.653029	 -0.260215
H	 0.892322	 -0.431230	 -1.391182
H	 2.554804	 1.403808	 -1.598707
H	 2.332906	 1.823279	 0.087861
H	 1.021023	 2.050387	 -1.051976
H	 -1.341891	 -1.779207	 -0.789259
H	 -2.820449	 -0.808163	 -0.671328
H	 -2.133314	 -1.593056	 0.755831
