16

H	 -1.478824	 -1.548350	 1.258117
C	 -2.125953	 -1.081668	 0.518986
O	 -1.401606	 -0.295183	 -0.366624
H	 -2.616656	 -1.856355	 -0.051943
H	 -2.883073	 -0.500829	 1.042703
C	 -0.718530	 0.758693	 0.228682
C	 0.718529	 0.758687	 -0.228709
H	 -1.176498	 1.708665	 -0.046615
H	 -0.748705	 0.673525	 1.312779
O	 1.401606	 -0.295166	 0.366636
H	 0.748705	 0.673477	 -1.312803
H	 1.176496	 1.708671	 0.046552
C	 2.714315	 -0.441627	 -0.061017
H	 2.765292	 -0.641548	 -1.128869
H	 3.305661	 0.447341	 0.150952
H	 3.143725	 -1.278506	 0.470147
