22

O	 3.228144	 2.531246	 -0.468806
C	 2.194390	 2.071245	 -0.106617
C	 1.134806	 1.647422	 -1.104467
C	 1.888487	 1.866857	 1.358108
C	 1.407793	 0.232352	 -1.629726
H	 1.159032	 2.351107	 -1.926872
H	 0.151087	 1.688411	 -0.648965
C	 1.630207	 -0.772146	 -0.501001
H	 0.569932	 -0.068667	 -2.245847
H	 2.283013	 0.243348	 -2.274837
C	 2.907848	 -0.545876	 0.309149
H	 1.641417	 -1.777270	 -0.915221
H	 0.780539	 -0.731299	 0.175017
C	 3.373802	 0.906639	 0.372125
H	 3.699140	 -1.146831	 -0.127906
H	 2.764321	 -0.923458	 1.318191
H	 3.519798	 1.311927	 -0.623875
H	 4.316899	 0.983758	 0.900700
H	 2.661122	 1.540651	 0.885346
H	 1.092617	 2.542883	 1.654042
H	 2.767444	 2.063138	 1.952648
H	 1.534967	 0.857826	 1.538299
