16

H	 -1.388147	 -1.442015	 4.049714
C	 -0.728238	 -1.258161	 3.224589
C	 -0.842873	 -1.993504	 2.053281
C	 0.245320	 -0.290239	 3.309367
H	 -1.596755	 -2.753139	 1.968724
C	 0.000518	 -1.761239	 0.993674
H	 0.349371	 0.288869	 4.207419
C	 1.105512	 -0.042664	 2.248619
H	 -0.079655	 -2.323741	 0.084370
C	 0.982947	 -0.780945	 1.085865
H	 1.852608	 0.717469	 2.346123
O	 1.760432	 -0.625184	 0.000000
C	 2.773565	 0.334879	 0.000000
H	 2.728295	 0.960928	 -0.884150
H	 3.706387	 -0.206610	 0.000000
H	 2.728295	 0.960928	 0.884150
