23

O	 1.847685	 1.294399	 -0.000190
C	 1.704209	 0.119472	 -0.000093
C	 0.380337	 -0.600947	 -0.000234
O	 2.715427	 -0.733672	 0.000025
C	 -0.824290	 0.329213	 -0.000115
H	 0.371455	 -1.255476	 -0.865660
H	 0.371410	 -1.255787	 0.864952
C	 -2.146151	 -0.432825	 -0.000068
H	 -0.773936	 0.979158	 -0.866319
H	 -0.773838	 0.979034	 0.866186
C	 -3.366283	 0.483552	 0.000557
H	 -2.189286	 -1.084450	 -0.869996
H	 -2.188867	 -1.085083	 0.869399
C	 -4.529108	 -0.066634	 -0.818312
H	 -3.082089	 1.458120	 -0.386236
H	 -3.691214	 0.646136	 1.024347
H	 -4.245309	 -0.207781	 -1.855987
H	 -5.377597	 0.607416	 -0.796950
H	 -4.859516	 -1.025999	 -0.434014
C	 4.020999	 -0.192556	 0.000019
H	 4.182809	 0.412891	 -0.879449
H	 4.692590	 -1.035653	 0.000152
H	 4.182726	 0.413087	 0.879368
