27

H	 7.811599	 -6.089842	 -1.370035
O	 7.307476	 -5.736087	 -0.661129
C	 7.533190	 -4.355836	 -0.546094
C	 6.884522	 -3.540737	 -1.654935
H	 7.114104	 -4.066527	 0.408185
H	 8.600709	 -4.148003	 -0.505368
C	 5.428057	 -3.906332	 -1.932240
H	 6.954665	 -2.488426	 -1.396326
H	 7.469719	 -3.683090	 -2.560296
C	 5.273518	 -5.301222	 -2.536589
H	 4.995495	 -3.171844	 -2.603373
H	 4.860881	 -3.854877	 -1.004366
C	 3.829093	 -5.749470	 -2.766729
H	 5.816925	 -5.344796	 -3.477353
H	 5.754363	 -6.018213	 -1.876906
C	 3.009841	 -5.968591	 -1.496077
H	 3.331417	 -4.997692	 -3.373092
H	 3.826972	 -6.662562	 -3.357841
C	 3.483501	 -7.168232	 -0.679428
H	 1.964800	 -6.108804	 -1.763840
H	 3.047183	 -5.082307	 -0.869891
C	 4.787405	 -7.768073	 -1.195101
H	 3.610487	 -6.868801	 0.357294
H	 2.710250	 -7.931867	 -0.682378
H	 5.589371	 -7.037552	 -1.174452
H	 5.096164	 -8.614511	 -0.592342
H	 4.682460	 -8.112344	 -2.218729
