25

O	 2.825358	 1.419812	 0.263167
C	 2.707126	 0.373056	 0.811285
C	 1.413242	 -0.414919	 0.783161
C	 3.851619	 -0.247392	 1.580312
C	 0.288398	 0.247429	 0.000314
H	 1.637902	 -1.398762	 0.377391
H	 1.114144	 -0.590114	 1.814109
C	 -0.993089	 -0.581367	 -0.000217
H	 0.617058	 0.418392	 -1.018444
H	 0.092948	 1.227843	 0.419505
C	 -2.258482	 0.271340	 0.000669
H	 -1.002280	 -1.233920	 -0.870484
H	 -1.002061	 -1.235367	 0.868958
C	 -3.544441	 -0.550271	 -0.000253
H	 -2.250545	 0.925250	 -0.867923
H	 -2.250598	 0.923423	 0.870642
C	 -4.804551	 0.308747	 0.000556
H	 -3.553737	 -1.201524	 -0.870151
H	 -3.553831	 -1.203282	 0.868313
H	 -4.842050	 0.949078	 -0.874436
H	 -5.698404	 -0.304480	 -0.000254
H	 -4.842277	 0.947103	 0.876982
H	 4.096142	 -1.219865	 1.167332
H	 4.716615	 0.395904	 1.531906
H	 3.567285	 -0.399486	 2.615717
