20

H	 3.729471	 -0.928294	 -0.070608
O	 2.826016	 -1.159218	 0.122261
C	 2.077727	 -0.067559	 -0.035091
C	 0.624473	 -0.343591	 0.253101
O	 2.542965	 0.974826	 -0.363729
C	 -0.265902	 0.883932	 0.072916
H	 0.324016	 -1.163849	 -0.390541
H	 0.565024	 -0.726111	 1.268924
C	 -1.728698	 0.646073	 0.462102
H	 -0.209144	 1.219470	 -0.958188
H	 0.135059	 1.692851	 0.673903
C	 -2.304174	 1.655112	 1.459912
H	 -1.805253	 -0.349446	 0.893196
H	 -2.346137	 0.634146	 -0.434994
C	 -3.729468	 1.308262	 1.889690
H	 -1.662466	 1.696437	 2.337720
H	 -2.299249	 2.653247	 1.029697
H	 -4.116004	 2.037592	 2.594660
H	 -3.768584	 0.333261	 2.366840
H	 -4.401316	 1.284917	 1.036278
