13

H	 0.817127	 1.799155	 1.497638
C	 1.083002	 1.050590	 0.738824
C	 0.062554	 0.862911	 -0.350953
O	 2.109582	 0.469660	 0.815032
C	 -1.339253	 0.577611	 0.196911
H	 0.401069	 0.071887	 -1.007597
H	 0.041822	 1.788130	 -0.922454
C	 -1.813142	 -0.849710	 -0.061612
H	 -2.032833	 1.276441	 -0.256032
H	 -1.357249	 0.782269	 1.263793
H	 -1.839268	 -1.063526	 -1.124230
H	 -2.810118	 -1.001930	 0.334000
H	 -1.159274	 -1.579980	 0.402282
