20

O	 1.216069	 1.304886	 0.000821
C	 1.121787	 0.124983	 0.000110
C	 -0.170912	 -0.649867	 -0.000147
O	 2.167739	 -0.685178	 -0.000678
C	 -1.413045	 0.229353	 0.001137
H	 -0.152877	 -1.303435	 -0.866175
H	 -0.152278	 -1.305116	 0.864586
C	 -1.094431	 1.685984	 -0.322930
H	 -1.895820	 0.165767	 0.969860
H	 -2.127339	 -0.158763	 -0.716285
C	 -2.332056	 2.576588	 -0.322107
H	 -0.375798	 2.068276	 0.397251
H	 -0.610746	 1.743312	 -1.294525
H	 -2.819008	 2.567654	 0.647110
H	 -2.076125	 3.603722	 -0.554858
H	 -3.055602	 2.240440	 -1.057000
C	 3.449556	 -0.089977	 -0.000570
H	 3.585694	 0.522473	 -0.879546
H	 4.155805	 -0.904274	 -0.001389
H	 3.586173	 0.521118	 0.879272
