15

O	 -0.988175	 -1.402891	 0.050086
C	 -0.675048	 -0.248293	 -0.009686
C	 -1.742492	 0.826599	 -0.011538
N	 0.622280	 0.144970	 -0.099307
H	 -1.692153	 1.431066	 -0.908439
H	 -2.698310	 0.331559	 0.031353
H	 -1.642148	 1.483784	 0.843455
C	 1.530789	 -0.624713	 -0.922804
C	 1.250362	 1.067839	 0.815887
H	 2.211111	 0.045605	 -1.433744
H	 0.972174	 -1.187256	 -1.648529
H	 2.118388	 -1.315380	 -0.323357
H	 2.004421	 1.636041	 0.286568
H	 0.542141	 1.768350	 1.224056
H	 1.739057	 0.553025	 1.640015
