22

H	 2.844821	 -0.593395	 1.836636
C	 2.174466	 -0.741962	 0.996792
C	 0.956816	 0.162634	 1.129220
H	 1.869611	 -1.781042	 0.979535
H	 2.735753	 -0.544812	 0.091904
N	 0.000297	 0.000045	 0.046090
H	 0.462097	 -0.076546	 2.060436
H	 1.276094	 1.204999	 1.215636
C	 -1.359159	 0.315706	 0.454404
C	 0.397846	 0.713285	 -1.157142
C	 -2.416729	 -0.286720	 -0.460525
H	 -1.478729	 1.390261	 0.442008
H	 -1.539692	 0.003361	 1.486761
C	 -0.134424	 0.079270	 -2.435091
H	 1.477748	 0.718079	 -1.210513
H	 0.092960	 1.762365	 -1.108287
H	 -2.285276	 0.073129	 -1.473515
H	 -2.371743	 -1.368476	 -0.483209
H	 -3.408658	 -0.007405	 -0.121593
H	 0.221075	 -0.939825	 -2.524384
H	 -1.216810	 0.057705	 -2.462531
H	 0.203817	 0.639331	 -3.300386
