16

O	 -2.081319	 -0.951530	 -0.502732
N	 -1.613558	 0.006676	 0.014756
C	 -0.329345	 -0.171618	 0.743966
O	 -2.068523	 1.100482	 -0.024385
C	 0.835904	 0.041968	 -0.213982
H	 -0.346048	 -1.174374	 1.137184
H	 -0.333613	 0.555559	 1.538590
C	 1.860706	 -1.083920	 -0.102977
H	 0.453531	 0.096697	 -1.226580
H	 1.304908	 0.993284	 0.009110
C	 3.042136	 -0.890552	 -1.047070
H	 1.378593	 -2.033254	 -0.316914
H	 2.221332	 -1.144223	 0.919627
H	 2.715530	 -0.860066	 -2.080557
H	 3.563135	 0.036719	 -0.836249
H	 3.753756	 -1.701034	 -0.947685
