25

H	 -7.765985	 4.045162	 0.487758
C	 -7.511230	 2.981161	 0.388323
C	 -6.293970	 2.546425	 1.158502
O	 -8.170943	 2.276305	 -0.293779
C	 -5.343311	 1.681317	 0.325728
H	 -5.797464	 3.427462	 1.543975
H	 -6.653685	 1.967542	 2.006325
C	 -4.668099	 2.437755	 -0.816232
H	 -4.585349	 1.272570	 0.985090
H	 -5.888199	 0.828859	 -0.072525
C	 -5.641798	 2.853761	 -1.915610
H	 -3.886941	 1.813636	 -1.242113
H	 -4.167831	 3.321011	 -0.427622
C	 -6.900381	 3.527547	 -1.372262
H	 -5.131072	 3.519686	 -2.604122
H	 -5.926883	 1.976978	 -2.492911
C	 -7.827821	 4.111512	 -2.439380
H	 -6.614724	 4.314215	 -0.677756
H	 -7.459838	 2.800038	 -0.790848
C	 -7.244121	 5.287623	 -3.218572
H	 -8.743922	 4.435874	 -1.955707
H	 -8.114795	 3.326049	 -3.133643
H	 -6.941812	 6.086551	 -2.549005
H	 -6.377675	 4.999038	 -3.801388
H	 -7.976863	 5.694192	 -3.906144
