11

H	 -1.835082	 1.385983	 0.000069
C	 -1.300516	 0.441153	 -0.000028
O	 -0.006604	 0.654344	 -0.000106
O	 -1.828920	 -0.612308	 0.000113
C	 0.852093	 -0.482521	 -0.000161
C	 0.905512	 -1.020083	 1.410114
H	 1.829446	 -0.181954	 -0.350016
H	 0.461565	 -1.215158	 -0.692038
H	 1.294639	 -0.274922	 2.092232
H	 1.552666	 -1.888329	 1.444695
H	 -0.080128	 -1.313297	 1.748505
