22

O   -2.324811   1.361668    -0.277141
C   -2.105949   0.203097    -0.092081
C   -0.889235   -0.467034    -0.705952
C   -3.002726   -0.644460    0.782455
C   0.379448   -0.143569    0.099626
H   -0.781540   -0.090331    -1.717288
H   -1.031287   -1.542693    -0.758918
C   1.631333   -0.777471    -0.511575
H   0.482768   0.934507    0.149241
H   0.263088   -0.495696    1.123449
C   2.915987   -0.544314    0.291766
H   1.766672   -0.399098    -1.523130
H   1.471257   -1.849544    -0.605828
C   3.373361   0.914346    0.347591
H   3.708709   -1.142521    -0.150311
H   2.780642   -0.921148    1.303579
H   3.506512   1.320010    -0.651625
H   4.322697   0.999599    0.867103
H   2.660624   1.545032    0.868198
H   -3.496582   -1.399307    0.176174
H   -3.747939   -0.023774    1.260148
H   -2.421318   -1.168775    1.535358
