16

O	 -2.081319	 -0.951530	 -0.502732
N	 -1.613558	 0.006676	 0.014756
C	 -0.329345	 -0.171618	 0.743966
O	 -2.068523	 1.100482	 -0.024385
C	 0.835904	 0.041968	 -0.213982
H	 -0.346048	 -1.174374	 1.137184
H	 -0.333613	 0.555559	 1.538590
C	 2.177039	 -0.130175	 0.494460
H	 0.754456	 -0.665923	 -1.030569
H	 0.765464	 1.037260	 -0.637266
C	 3.350788	 0.333130	 -0.361193
H	 2.313424	 -1.174267	 0.760370
H	 2.167052	 0.427122	 1.426515
H	 3.406377	 -0.230023	 -1.286107
H	 3.257689	 1.382736	 -0.616882
H	 4.288676	 0.201522	 0.164362
