12

H	 -1.396087	 -0.394552	 -0.560513
N	 -0.625934	 -0.663929	 -0.000707
C	 -0.730064	 -1.880477	 0.770177
C	 0.468494	 0.129045	 -0.002160
H	 -1.551587	 -1.824487	 1.474417
H	 0.187932	 -2.015726	 1.316147
H	 -0.883386	 -2.737398	 0.125028
C	 1.785715	 -0.615093	 0.000603
O	 0.413285	 1.323206	 0.000532
H	 1.866994	 -1.243310	 -0.878792
H	 2.591506	 0.100263	 0.006422
H	 1.860358	 -1.250360	 0.875522
