18

H	 -3.135461	 -1.215070	 0.001379
O	 -2.310168	 -0.871793	 -0.309793
C	 -2.026376	 0.340750	 0.341611
C	 -0.673256	 0.843270	 -0.132153
H	 -2.792215	 1.080697	 0.115987
H	 -2.013526	 0.200402	 1.421792
C	 0.486613	 -0.083066	 0.235839
H	 -0.715586	 0.970948	 -1.210718
H	 -0.508072	 1.829858	 0.297090
C	 1.385394	 0.493553	 1.331064
H	 1.076884	 -0.283884	 -0.652286
H	 0.088581	 -1.041695	 0.566657
C	 2.541110	 -0.434726	 1.702938
H	 1.784277	 1.450672	 1.001622
H	 0.789927	 0.700692	 2.218169
H	 3.175341	 -0.632991	 0.843675
H	 3.162441	 0.000751	 2.479631
H	 2.174689	 -1.389751	 2.069237
