24

H	 -3.436473	 1.252944	 -1.023892
O	 -3.458596	 0.315260	 -0.960865
C	 -3.176635	 -0.080824	 0.355601
C	 -1.763371	 0.265266	 0.799691
H	 -3.321825	 -1.153438	 0.379502
H	 -3.895468	 0.357385	 1.043382
C	 -0.702669	 -0.712355	 0.302208
H	 -1.523099	 1.271923	 0.460905
H	 -1.750222	 0.300258	 1.886425
C	 0.712662	 -0.332046	 0.729027
H	 -0.752490	 -0.773936	 -0.779291
H	 -0.936210	 -1.706914	 0.674790
C	 1.768869	 -1.317240	 0.232168
H	 0.934775	 0.665667	 0.362799
H	 0.759729	 -0.276032	 1.814616
C	 3.194725	 -1.023557	 0.701777
H	 1.749252	 -1.345657	 -0.854873
H	 1.496007	 -2.314958	 0.564921
C	 3.795650	 0.266815	 0.149534
H	 3.829682	 -1.854588	 0.410241
H	 3.215434	 -0.994273	 1.788117
H	 3.782836	 0.268632	 -0.935782
H	 4.826390	 0.377357	 0.466704
H	 3.256142	 1.143202	 0.487888
