25

H	 1.656344	 3.058822	 3.934756
C	 1.262304	 2.133045	 4.375839
C	 0.000016	 1.615928	 3.740929
O	 1.820872	 1.627467	 5.286718
C	 0.111837	 1.486911	 2.218915
H	 -0.256521	 0.671797	 4.203683
H	 -0.783887	 2.330449	 3.982301
C	 1.089281	 0.404537	 1.765866
H	 -0.873576	 1.272614	 1.819695
H	 0.406343	 2.444856	 1.797251
C	 1.181757	 0.280428	 0.247371
H	 0.783731	 -0.548844	 2.188728
H	 2.077608	 0.608735	 2.169525
C	 2.151032	 -0.811012	 -0.202643
H	 0.190837	 0.085037	 -0.150429
H	 1.497197	 1.233338	 -0.171863
C	 3.580021	 -0.656538	 0.320835
H	 2.170545	 -0.847575	 -1.289412
H	 1.766632	 -1.772905	 0.124928
C	 4.327657	 0.562694	 -0.213579
H	 4.138806	 -1.549270	 0.057813
H	 3.561991	 -0.620783	 1.406976
H	 4.355973	 0.557257	 -1.298551
H	 3.867136	 1.491650	 0.100501
H	 5.351524	 0.571613	 0.142204
