27

H	 0.372786	 -3.063731	 -4.270100
O	 1.311417	 -3.054546	 -4.296892
C	 1.799065	 -1.830421	 -3.814203
C	 1.658666	 -1.673376	 -2.307448
H	 2.845903	 -1.802073	 -4.084955
H	 1.312159	 -1.000761	 -4.323160
C	 0.214485	 -1.611354	 -1.815164
H	 2.174607	 -2.497936	 -1.824682
H	 2.177171	 -0.762872	 -2.016704
C	 -0.634059	 -2.775685	 -2.324224
H	 -0.231868	 -0.674101	 -2.130328
H	 0.204736	 -1.612248	 -0.726499
C	 -2.071640	 -2.804532	 -1.801936
H	 -0.647544	 -2.758950	 -3.411314
H	 -0.147968	 -3.705726	 -2.042785
C	 -2.210133	 -3.070251	 -0.303952
H	 -2.535414	 -1.848156	 -2.027297
H	 -2.638510	 -3.551263	 -2.353485
C	 -3.653795	 -2.990617	 0.185853
H	 -1.606519	 -2.350293	 0.244481
H	 -1.811360	 -4.050244	 -0.059828
C	 -3.796101	 -3.259111	 1.680360
H	 -4.056532	 -2.007767	 -0.043029
H	 -4.259883	 -3.703386	 -0.367031
H	 -3.226734	 -2.542233	 2.262722
H	 -4.831320	 -3.192232	 1.994934
H	 -3.436534	 -4.250342	 1.936335
