27

H	 -0.170597	 -4.029749	 -4.531399
O	 0.755002	 -3.952468	 -4.669689
C	 1.155202	 -2.613649	 -4.540550
C	 1.143620	 -2.113075	 -3.103895
H	 2.162601	 -2.567450	 -4.931694
H	 0.537461	 -1.971026	 -5.164955
C	 1.812569	 -3.055587	 -2.105884
H	 1.629319	 -1.142372	 -3.072435
H	 0.107587	 -1.957359	 -2.812715
C	 1.038352	 -4.358780	 -1.913230
H	 1.915542	 -2.551892	 -1.150535
H	 2.819937	 -3.286543	 -2.448163
C	 1.701674	 -5.372571	 -0.979160
H	 0.041187	 -4.130384	 -1.544824
H	 0.901505	 -4.825595	 -2.884737
C	 3.009841	 -5.968591	 -1.496077
H	 1.896814	 -4.883538	 -0.028742
H	 1.000087	 -6.175933	 -0.765760
C	 3.483501	 -7.168232	 -0.679428
H	 3.781425	 -5.201776	 -1.485084
H	 2.898094	 -6.272898	 -2.532375
C	 4.787405	 -7.768073	 -1.195101
H	 3.610487	 -6.868801	 0.357294
H	 2.710250	 -7.931867	 -0.682378
H	 5.589371	 -7.037552	 -1.174452
H	 5.096164	 -8.614511	 -0.592342
H	 4.682460	 -8.112344	 -2.218729
