20

O	 0.435734	 -0.563606	 0.675564
C	 1.121787	 0.124983	 0.000110
C	 1.155482	 1.631316	 0.035988
O	 1.969101	 -0.353489	 -0.896273
C	 1.229228	 2.209890	 1.441598
H	 2.002436	 1.947527	 -0.564146
H	 0.273715	 1.984454	 -0.488648
C	 2.385105	 1.627698	 2.249875
H	 0.292273	 2.024621	 1.954754
H	 1.329989	 3.287691	 1.380465
C	 2.466962	 2.199056	 3.661165
H	 2.280453	 0.547296	 2.304809
H	 3.321116	 1.816276	 1.730685
H	 1.558354	 1.996367	 4.217881
H	 3.295578	 1.768229	 4.211130
H	 2.606692	 3.274506	 3.639621
C	 3.226978	 0.281687	 -1.004047
H	 3.107866	 1.319775	 -1.276836
H	 3.762124	 -0.246898	 -1.776112
H	 3.765395	 0.222432	 -0.069799
