11

H   -2.032960   -1.268042    0.000000
C   -1.127921   -0.688651    0.000000
N   0.000055   -1.369107    0.000000
C   -1.186962   0.691942    0.000000
C   1.127964   -0.688576    0.000000
H   -2.134709   1.193119    0.000000
C   -0.000049   1.396051    0.000000
H   2.033051   -1.267887    0.000000
C   1.186911   0.692033    0.000000
H   -0.000094   2.469526    0.000000
H   2.134624   1.193273    0.000000
