12

H	 -0.521482	 -1.601167	 -0.300300
N	 -0.625934	 -0.663929	 -0.000707
C	 -1.934889	 -0.218281	 0.415382
C	 0.468494	 0.129045	 -0.002160
H	 -2.651102	 -0.310406	 -0.392418
H	 -1.865328	 0.816969	 0.702632
H	 -2.290298	 -0.793557	 1.262011
C	 1.785715	 -0.615093	 0.000603
O	 0.413285	 1.323206	 0.000532
H	 1.866994	 -1.243310	 -0.878792
H	 2.591506	 0.100263	 0.006422
H	 1.860358	 -1.250360	 0.875522
