18

H	 -3.144994	 -1.202467	 -0.018751
O	 -2.321472	 -0.864941	 -0.318626
C	 -2.021813	 0.336996	 0.342658
C	 -0.669613	 0.837286	 -0.127252
H	 -2.780861	 1.084746	 0.127159
H	 -2.006390	 0.184138	 1.420053
C	 0.490865	 -0.082543	 0.241244
H	 -0.708709	 0.967192	 -1.204587
H	 -0.507562	 1.822272	 0.303070
C	 1.123648	 -0.760450	 -0.970628
H	 0.140896	 -0.836411	 0.937133
H	 1.250388	 0.493242	 0.766335
C	 2.288517	 -1.673938	 -0.604014
H	 0.365961	 -1.337115	 -1.494145
H	 1.467099	 -0.003220	 -1.670866
H	 1.968872	 -2.463297	 0.068039
H	 2.714515	 -2.141289	 -1.484590
H	 3.079276	 -1.120258	 -0.108449
