13

H	 2.761116	 1.599075	 -1.056142
C	 2.046223	 1.423237	 -0.262865
C	 1.322304	 0.099773	 -0.484271
H	 2.586612	 1.424503	 0.677001
H	 1.351566	 2.255504	 -0.251779
C	 0.308557	 -0.162619	 0.622645
H	 2.034690	 -0.715494	 -0.508366
H	 0.806868	 0.111488	 -1.436703
N	 -1.069352	 -0.004081	 0.085342
H	 0.371632	 -1.172932	 0.991288
H	 0.400391	 0.548875	 1.426218
O	 -1.584901	 -0.965470	 -0.377818
O	 -1.548033	 1.079343	 0.130056
