27

H	 2.614283	 2.028610	 0.296620
O	 3.358864	 1.662087	 -0.142800
C	 3.565468	 0.338079	 0.273842
C	 2.533667	 -0.637565	 -0.272227
H	 4.548038	 0.064914	 -0.086598
H	 3.593945	 0.282242	 1.360360
C	 1.114816	 -0.402372	 0.240993
H	 2.544552	 -0.580764	 -1.356576
H	 2.850574	 -1.642962	 -0.005497
C	 0.301162	 0.515446	 -0.670277
H	 1.160039	 0.025170	 1.237068
H	 0.602262	 -1.358398	 0.333683
C	 -1.152519	 0.726778	 -0.243188
H	 0.798150	 1.479925	 -0.741071
H	 0.306922	 0.098680	 -1.673643
C	 -1.337298	 1.500400	 1.061077
H	 -1.666870	 1.260934	 -1.037322
H	 -1.646140	 -0.239039	 -0.161393
C	 -2.802642	 1.771335	 1.392397
H	 -0.805186	 2.446893	 0.994172
H	 -0.887033	 0.955871	 1.885548
C	 -2.990896	 2.540300	 2.695910
H	 -3.257692	 2.327712	 0.577565
H	 -3.337494	 0.827125	 1.451248
H	 -2.494176	 3.504140	 2.656932
H	 -4.040730	 2.717848	 2.899459
H	 -2.579501	 1.992121	 3.537102
