23

O	 1.816773	 1.332945	 -0.963344
C	 0.781622	 1.719742	 -1.387478
C	 -0.518669	 0.958420	 -1.351787
O	 0.630629	 2.901797	 -1.962250
C	 -0.824290	 0.329213	 -0.000115
H	 -1.301960	 1.647247	 -1.650821
H	 -0.472151	 0.207303	 -2.133516
C	 -0.764526	 1.342725	 1.138849
H	 -0.122522	 -0.475842	 0.186114
H	 -1.805861	 -0.129806	 -0.033438
C	 0.659640	 1.753156	 1.501847
H	 -1.333120	 2.229018	 0.866017
H	 -1.252242	 0.928905	 2.018693
C	 0.719412	 2.766471	 2.639840
H	 1.147406	 2.167503	 0.624032
H	 1.228015	 0.868905	 1.776092
H	 0.188348	 3.676828	 2.382048
H	 1.743263	 3.036051	 2.871767
H	 0.269952	 2.367823	 3.543334
C	 1.774850	 3.725117	 -2.063383
H	 2.168391	 3.953019	 -1.083894
H	 1.449161	 4.628457	 -2.553025
H	 2.542901	 3.240436	 -2.647673
