10

H	 2.240742	 1.760169	 0.064650
O	 1.320481	 1.769731	 0.250856
C	 0.700177	 0.619554	 -0.266242
C	 -0.713111	 0.588314	 0.266177
H	 1.227076	 -0.275254	 0.050965
H	 0.680261	 0.644347	 -1.352688
O	 -1.421673	 -0.521378	 -0.196983
H	 -1.244794	 1.469161	 -0.069059
H	 -0.685100	 0.604721	 1.352683
H	 -0.933408	 -1.297830	 0.014544
