27

H	 2.614283	 2.028610	 0.296620
O	 3.358864	 1.662087	 -0.142800
C	 3.565468	 0.338079	 0.273842
C	 2.533667	 -0.637565	 -0.272227
H	 4.548038	 0.064914	 -0.086598
H	 3.593945	 0.282242	 1.360360
C	 1.114816	 -0.402372	 0.240993
H	 2.544552	 -0.580764	 -1.356576
H	 2.850574	 -1.642962	 -0.005497
C	 0.077673	 -1.270913	 -0.469505
H	 0.856909	 0.643922	 0.115476
H	 1.079776	 -0.607379	 1.309652
C	 -1.352193	 -1.130238	 0.055803
H	 0.092777	 -1.046612	 -1.533313
H	 0.376739	 -2.311263	 -0.376224
C	 -2.002381	 0.229198	 -0.195062
H	 -1.963942	 -1.897057	 -0.411400
H	 -1.364882	 -1.343544	 1.122337
C	 -3.459181	 0.287182	 0.257466
H	 -1.948452	 0.461219	 -1.256536
H	 -1.446047	 1.009437	 0.315546
C	 -4.110280	 1.644257	 0.011884
H	 -4.026108	 -0.482554	 -0.258944
H	 -3.515709	 0.047304	 1.315920
H	 -4.098510	 1.898852	 -1.042763
H	 -5.142955	 1.650204	 0.341510
H	 -3.588565	 2.431539	 0.546068
