15

H	 -3.162190	 0.493205	 -0.000107
C	 -2.363908	 -0.234727	 0.000005
O	 -1.158738	 0.454634	 -0.000087
H	 -2.464314	 -0.863616	 -0.882153
H	 -2.464327	 -0.863359	 0.882345
C	 -0.028611	 -0.359694	 0.000037
C	 1.212847	 0.509314	 -0.000053
H	 -0.034155	 -1.007047	 -0.877198
H	 -0.034195	 -1.006836	 0.877430
C	 1.043367	 1.766952	 0.844917
H	 2.046150	 -0.078753	 0.368336
H	 1.447374	 0.776462	 -1.024543
H	 0.831752	 1.522002	 1.880438
H	 1.943896	 2.368414	 0.827273
H	 0.229183	 2.383071	 0.478079
