16

O	 -2.081319	 -0.951530	 -0.502732
N	 -1.613558	 0.006676	 0.014756
C	 -0.329345	 -0.171618	 0.743966
O	 -2.068523	 1.100482	 -0.024385
C	 -0.013184	 -1.656963	 0.865954
H	 -0.466928	 0.289158	 1.707903
H	 0.416084	 0.351033	 0.168289
C	 1.300756	 -1.886793	 1.608185
H	 -0.825383	 -2.147813	 1.389362
H	 0.041950	 -2.087636	 -0.127132
C	 1.644685	 -3.366448	 1.737860
H	 1.239378	 -1.441898	 2.596991
H	 2.103854	 -1.373315	 1.087820
H	 0.874763	 -3.900185	 2.283793
H	 1.743413	 -3.831560	 0.763365
H	 2.580425	 -3.501490	 2.266364
