13

H	 -4.096534	 0.566897	 -0.558421
C	 -3.331669	 0.138776	 0.056397
C	 -2.185659	 -0.199349	 -0.481822
H	 -3.524985	 -0.000635	 1.101860
O	 -1.189946	 -0.765863	 0.237511
H	 -1.978229	 -0.056276	 -1.526633
C	 0.026572	 -0.995256	 -0.379403
C	 1.057223	 0.049888	 -0.004615
H	 -0.054361	 -1.010670	 -1.459674
H	 0.397526	 -1.952058	 -0.044198
F	 2.203233	 -0.234060	 -0.590375
F	 0.698147	 1.254887	 -0.392621
F	 1.266440	 0.094219	 1.288722
