27

H	 2.614283	 2.028610	 0.296620
O	 3.358864	 1.662087	 -0.142800
C	 3.565468	 0.338079	 0.273842
C	 4.662699	 0.195083	 1.318026
H	 2.623402	 0.009464	 0.691579
H	 3.778545	 -0.300061	 -0.581626
C	 6.059509	 0.549097	 0.812610
H	 4.412511	 0.820410	 2.169806
H	 4.657447	 -0.833953	 1.669389
C	 7.138661	 0.362054	 1.878106
H	 6.066209	 1.577878	 0.468275
H	 6.298435	 -0.071153	 -0.049649
C	 8.568098	 0.631674	 1.404536
H	 6.915591	 1.002170	 2.728235
H	 7.086097	 -0.658579	 2.246909
C	 8.867686	 2.086761	 1.048567
H	 9.251676	 0.320492	 2.189657
H	 8.786901	 -0.000662	 0.546963
C	 10.329779	 2.322203	 0.678078
H	 8.605847	 2.722576	 1.891566
H	 8.241286	 2.405587	 0.220935
C	 10.631547	 3.773242	 0.318477
H	 10.963286	 2.017688	 1.506642
H	 10.595347	 1.681505	 -0.158607
H	 10.406614	 4.436676	 1.147029
H	 11.676812	 3.905856	 0.063641
H	 10.040618	 4.097173	 -0.531949
