20

O	 -2.439739	 -0.935931	 -0.423848
C	 -1.921153	 0.064240	 -0.045697
C	 -2.624470	 1.379923	 0.150949
O	 -0.632575	 0.154573	 0.251549
H	 -2.168117	 2.136577	 -0.476876
H	 -3.669540	 1.273223	 -0.098610
H	 -2.519365	 1.700893	 1.180846
C	 0.160891	 -1.019931	 0.106212
C	 1.589627	 -0.672828	 0.480843
H	 0.089836	 -1.367806	 -0.916050
H	 -0.238459	 -1.792301	 0.749618
C	 2.555691	 -0.653873	 -0.705227
H	 1.923213	 -1.406596	 1.211759
H	 1.597004	 0.292329	 0.980519
C	 3.989145	 -0.327470	 -0.288488
H	 2.534654	 -1.622793	 -1.200050
H	 2.214408	 0.073461	 -1.434521
H	 4.653908	 -0.319154	 -1.146424
H	 4.370373	 -1.059303	 0.418168
H	 4.047188	 0.649011	 0.183947
