22

H	 1.974850	 -3.594059	 -3.719716
C	 1.794199	 -3.230222	 -2.715178
C	 0.575541	 -2.314885	 -2.674154
H	 1.657617	 -4.093069	 -2.071845
H	 2.688809	 -2.712033	 -2.386286
C	 0.285399	 -1.779579	 -1.279797
H	 -0.300597	 -2.844192	 -3.031900
H	 0.730235	 -1.479189	 -3.352578
N	 -0.889000	 -0.934344	 -1.269871
H	 0.106203	 -2.612391	 -0.606386
H	 1.170457	 -1.260831	 -0.899460
C	 -1.215959	 -0.382435	 0.027143
H	 -0.777918	 -0.195312	 -1.932299
C	 -2.451944	 0.502410	 -0.038737
H	 -1.402473	 -1.208444	 0.706922
H	 -0.385227	 0.186858	 0.454772
C	 -3.752217	 -0.292550	 0.005776
H	 -2.407325	 1.093801	 -0.946480
H	 -2.431979	 1.206234	 0.790023
H	 -3.817783	 -0.982946	 -0.828547
H	 -4.612613	 0.364348	 -0.042306
H	 -3.830160	 -0.871666	 0.919868
