25

O	 -4.741559	 3.677983	 3.374923
C	 -3.562142	 3.759984	 3.486103
C	 -2.630085	 2.634875	 3.084568
C	 -2.907686	 5.004973	 4.041002
C	 -2.930863	 2.021940	 1.724174
H	 -1.614819	 3.023858	 3.116108
H	 -2.673335	 1.879345	 3.865793
C	 -2.412589	 0.592102	 1.597427
H	 -2.493560	 2.642335	 0.950229
H	 -4.001253	 2.042322	 1.553925
C	 -2.707552	 -0.034108	 0.237578
H	 -1.338949	 0.579000	 1.771783
H	 -2.853817	 -0.023824	 2.377949
C	 -2.204232	 0.799896	 -0.937090
H	 -3.779715	 -0.184052	 0.137099
H	 -2.258067	 -1.023116	 0.193393
C	 -3.052428	 2.040021	 -1.198709
H	 -1.176633	 1.099937	 -0.750131
H	 -2.182816	 0.183560	 -1.831847
H	 -3.065704	 2.694534	 -0.333563
H	 -2.668539	 2.609084	 -2.037647
H	 -4.079237	 1.771384	 -1.423523
H	 -2.221465	 5.423139	 3.312795
H	 -3.662109	 5.735040	 4.290482
H	 -2.329392	 4.760820	 4.925313
