29

O	 3.042008	 -0.988224	 0.050560
C	 2.574127	 -2.072921	 -0.023620
C	 3.300766	 -3.312667	 -0.478981
O	 1.317782	 -2.342573	 0.292610
C	 2.936941	 -3.743489	 -1.894353
H	 4.360172	 -3.111678	 -0.374984
H	 3.075398	 -4.096137	 0.237757
C	 3.114766	 -2.642309	 -2.940594
H	 1.913172	 -4.100960	 -1.907840
H	 3.552528	 -4.592381	 -2.165359
C	 4.440502	 -1.886466	 -2.866215
H	 2.303528	 -1.930584	 -2.820160
H	 2.997394	 -3.066347	 -3.935428
C	 5.650110	 -2.811967	 -2.765801
H	 4.542240	 -1.258046	 -3.748037
H	 4.441378	 -1.215761	 -2.011996
C	 5.730626	 -3.565357	 -1.441152
H	 6.558923	 -2.230828	 -2.902463
H	 5.622836	 -3.528619	 -3.583439
C	 6.942535	 -4.486401	 -1.347711
H	 5.758154	 -2.850573	 -0.623199
H	 4.824202	 -4.148910	 -1.304341
H	 6.969429	 -5.005461	 -0.396482
H	 7.867257	 -3.927434	 -1.445461
H	 6.926385	 -5.235341	 -2.132590
C	 0.824678	 -3.623490	 -0.043565
H	 -0.139967	 -3.792406	 0.411591
H	 1.544729	 -4.329140	 0.337866
H	 0.731980	 -3.727573	 -1.114467
