15

H	 3.083659	 -1.378387	 0.000000
O	 2.179005	 -1.633391	 0.000000
C	 1.366950	 -0.558201	 0.000000
C	 1.083063	 0.155438	 -1.154473
C	 0.810479	 -0.173247	 1.202568
H	 1.517416	 -0.145832	 -2.090424
C	 0.244709	 1.250687	 -1.104018
H	 1.027785	 -0.722342	 2.095942
C	 -0.028646	 0.925620	 1.244145
H	 0.032265	 1.795159	 -2.003597
C	 -0.316026	 1.642329	 0.094987
C	 -0.634502	 1.350660	 2.533198
H	 -0.968303	 2.493581	 0.137323
O	 -0.457222	 0.812167	 3.571474
H	 -1.283271	 2.229381	 2.465765
