29

O	 3.042008	 -0.988224	 0.050560
C	 2.574127	 -2.072921	 -0.023620
C	 3.300766	 -3.312667	 -0.478981
O	 1.317782	 -2.342573	 0.292610
C	 3.541801	 -3.356511	 -1.982721
H	 4.226107	 -3.358277	 0.082460
H	 2.713138	 -4.165051	 -0.152693
C	 4.259811	 -2.122035	 -2.529869
H	 2.594124	 -3.486676	 -2.493637
H	 4.127678	 -4.237975	 -2.212459
C	 5.491183	 -1.685066	 -1.737918
H	 3.549827	 -1.300570	 -2.546635
H	 4.541482	 -2.297064	 -3.565874
C	 6.442509	 -2.838246	 -1.429789
H	 6.023816	 -0.921476	 -2.300149
H	 5.189718	 -1.221072	 -0.803379
C	 5.870412	 -3.850586	 -0.441535
H	 7.373628	 -2.439450	 -1.034418
H	 6.700036	 -3.348406	 -2.355145
C	 6.827243	 -4.998523	 -0.137407
H	 5.612796	 -3.342331	 0.483684
H	 4.941136	 -4.252211	 -0.836503
H	 6.390826	 -5.698174	 0.566164
H	 7.753703	 -4.632269	 0.292289
H	 7.077478	 -5.548648	 -1.038491
C	 0.824678	 -3.623490	 -0.043565
H	 -0.139967	 -3.792406	 0.411591
H	 1.544729	 -4.329140	 0.337866
H	 0.731980	 -3.727573	 -1.114467
