22

O	 2.924241	 2.627485	 -0.016417
C	 1.948415	 2.025207	 0.294154
C	 0.899544	 1.651783	 -0.734667
C	 1.709798	 1.584453	 1.718783
C	 1.281740	 0.358917	 -1.466285
H	 0.833613	 2.465587	 -1.445644
H	 -0.068587	 1.534324	 -0.259494
C	 1.630207	 -0.772146	 -0.501001
H	 0.454881	 0.072369	 -2.103798
H	 2.131043	 0.544682	 -2.119335
C	 2.907848	 -0.545876	 0.309149
H	 1.718495	 -1.701698	 -1.057883
H	 0.802670	 -0.908887	 0.189715
C	 3.373802	 0.906639	 0.372125
H	 3.699140	 -1.146831	 -0.127906
H	 2.764321	 -0.923458	 1.318191
H	 3.519798	 1.311927	 -0.623875
H	 4.316899	 0.983758	 0.900700
H	 2.661122	 1.540651	 0.885346
H	 0.866270	 2.133176	 2.125430
H	 2.586301	 1.774779	 2.318856
H	 1.454646	 0.531320	 1.756161
