21

H	 -3.543356	 0.176331	 2.684285
O	 -2.831915	 -0.374341	 2.414457
C	 -1.954341	 0.341595	 1.586378
C	 -0.823152	 -0.578038	 1.173088
H	 -2.476078	 0.706818	 0.704236
H	 -1.555184	 1.206487	 2.112179
C	 0.196029	 0.106276	 0.266738
H	 -1.248134	 -1.441179	 0.670497
H	 -0.336099	 -0.948226	 2.069557
C	 1.330220	 -0.826136	 -0.155230
H	 -0.311447	 0.492150	 -0.612059
H	 0.617073	 0.967901	 0.780455
C	 2.719700	 -0.407669	 0.328325
H	 1.339388	 -0.911200	 -1.239363
H	 1.119001	 -1.821953	 0.224128
C	 3.241564	 0.893452	 -0.276737
H	 3.418299	 -1.204729	 0.093035
H	 2.711776	 -0.323368	 1.411960
H	 3.254204	 0.841071	 -1.360784
H	 2.634460	 1.745075	 0.005842
H	 4.254264	 1.092401	 0.054971
