23

O	 -0.082303	 1.175062	 -0.789150
C	 0.781622	 1.719742	 -1.387478
C	 2.173697	 1.182130	 -1.599002
O	 0.630629	 2.901797	 -1.962250
C	 2.208584	 -0.274551	 -2.038533
H	 2.658243	 1.824167	 -2.327323
H	 2.717494	 1.325856	 -0.671065
C	 1.341875	 -0.530935	 -3.267801
H	 1.879974	 -0.903115	 -1.218657
H	 3.233644	 -0.561164	 -2.244435
C	 -0.152699	 -0.520284	 -2.960220
H	 1.555960	 0.219537	 -4.025568
H	 1.609388	 -1.489562	 -3.706787
C	 -1.018991	 -0.776032	 -4.188854
H	 -0.421187	 0.437088	 -2.522601
H	 -0.367932	 -1.270593	 -2.204660
H	 -0.851629	 -0.021296	 -4.950168
H	 -2.072790	 -0.761577	 -3.935806
H	 -0.798238	 -1.742647	 -4.629486
C	 1.774850	 3.725117	 -2.063383
H	 2.168391	 3.953019	 -1.083894
H	 1.449161	 4.628457	 -2.553025
H	 2.542901	 3.240436	 -2.647673
