14

O	 -0.694481	 1.313155	 -0.204815
C	 -0.862519	 0.151932	 -0.046791
C	 -2.171428	 -0.477048	 0.339095
O	 0.085519	 -0.757083	 -0.192238
H	 -2.467997	 -1.191667	 -0.417688
H	 -2.923379	 0.287970	 0.444097
H	 -2.053854	 -1.015120	 1.270901
C	 1.392036	 -0.330828	 -0.560749
C	 2.104186	 0.349999	 0.589562
H	 1.324653	 0.321661	 -1.417214
H	 1.904429	 -1.236690	 -0.848184
H	 3.116613	 0.599966	 0.292983
H	 1.597712	 1.262811	 0.871771
H	 2.153693	 -0.305477	 1.450663
