12

H	 -2.644180	 -0.653737	 1.272255
C	 -2.092774	 -0.380414	 0.391915
O	 -0.808934	 -0.154049	 0.752536
F	 -2.163230	 -1.351640	 -0.507133
F	 -2.627232	 0.691260	 -0.169301
C	 -0.078164	 0.771307	 0.039099
C	 1.300994	 0.167386	 -0.214826
Cl	 0.079377	 2.293478	 0.935600
H	 -0.522169	 1.003736	 -0.912995
F	 2.043731	 0.995291	 -0.904710
F	 1.162903	 -0.932478	 -0.916643
F	 1.922883	 -0.129461	 0.893049
