24

H	 -3.436473	 1.252944	 -1.023892
O	 -3.458596	 0.315260	 -0.960865
C	 -3.176635	 -0.080824	 0.355601
C	 -1.763371	 0.265266	 0.799691
H	 -3.321825	 -1.153438	 0.379502
H	 -3.895468	 0.357385	 1.043382
C	 -0.673390	 -0.426948	 -0.013392
H	 -1.631049	 1.344913	 0.747560
H	 -1.664587	 -0.001624	 1.849167
C	 0.737842	 -0.043159	 0.423759
H	 -0.806103	 -0.190518	 -1.063345
H	 -0.797221	 -1.503753	 0.074146
C	 0.757560	 0.800126	 1.697152
H	 1.319747	 -0.948195	 0.569314
H	 1.226513	 0.508265	 -0.376859
C	 0.151623	 2.197286	 1.553503
H	 1.781741	 0.889425	 2.052017
H	 0.214646	 0.268156	 2.473600
C	 0.926976	 3.137913	 0.634160
H	 0.091035	 2.647711	 2.539516
H	 -0.871841	 2.109320	 1.198252
H	 1.956683	 3.240666	 0.961608
H	 0.482071	 4.126496	 0.632038
H	 0.939514	 2.785392	 -0.390133
