28

H	 5.299899	 0.887864	 0.134600
C	 4.632031	 0.562477	 -0.654668
C	 3.223033	 0.325625	 -0.121800
H	 4.632802	 1.326412	 -1.424485
H	 5.046527	 -0.342787	 -1.086515
C	 2.255440	 -0.145025	 -1.205416
H	 2.850256	 1.241229	 0.322774
H	 3.259696	 -0.416513	 0.672373
C	 0.838362	 -0.396335	 -0.699827
H	 2.220645	 0.586888	 -2.002862
H	 2.630993	 -1.067382	 -1.639009
C	 0.055955	 0.859430	 -0.354318
H	 0.260626	 -0.911565	 -1.463060
H	 0.844335	 -1.058382	 0.161089
C	 -1.180025	 0.697761	 0.509157
O	 0.381734	 1.928816	 -0.758739
C	 -2.285431	 -0.137488	 -0.145671
H	 -1.544862	 1.691829	 0.729523
H	 -0.885228	 0.233686	 1.446667
C	 -3.646545	 0.082747	 0.508954
H	 -2.348635	 0.118247	 -1.199806
H	 -2.034895	 -1.192387	 -0.096473
C	 -4.757412	 -0.737227	 -0.138149
H	 -3.900211	 1.137405	 0.459735
H	 -3.580878	 -0.166775	 1.564416
H	 -4.867876	 -0.486707	 -1.187777
H	 -4.549650	 -1.800049	 -0.072540
H	 -5.709585	 -0.556397	 0.346597
