27

H	 2.614283	 2.028610	 0.296620
O	 3.358864	 1.662087	 -0.142800
C	 3.565468	 0.338079	 0.273842
C	 2.533667	 -0.637565	 -0.272227
H	 4.548038	 0.064914	 -0.086598
H	 3.593945	 0.282242	 1.360360
C	 1.114816	 -0.402372	 0.240993
H	 2.544552	 -0.580764	 -1.356576
H	 2.850574	 -1.642962	 -0.005497
C	 0.113298	 -1.420414	 -0.302504
H	 0.796373	 0.598427	 -0.031033
H	 1.113377	 -0.446476	 1.328807
C	 0.000118	 -2.712324	 0.508923
H	 -0.866471	 -0.954327	 -0.373512
H	 0.399557	 -1.677348	 -1.318628
C	 -0.596732	 -2.548459	 1.905584
H	 -0.614900	 -3.412722	 -0.049399
H	 0.982506	 -3.172311	 0.589423
C	 -0.780776	 -3.876218	 2.636058
H	 -1.559200	 -2.047526	 1.826901
H	 0.034275	 -1.902119	 2.508144
C	 -1.373002	 -3.715926	 4.032290
H	 -1.422173	 -4.524620	 2.045496
H	 0.178491	 -4.381877	 2.708031
H	 -2.348109	 -3.241838	 3.991728
H	 -1.492713	 -4.676049	 4.521105
H	 -0.735129	 -3.102798	 4.660418
