17

O	 1.591086	 -0.341652	 0.376455
C	 0.576499	 0.134701	 -0.003900
C	 -0.765656	 -0.550508	 -0.002152
O	 0.490752	 1.357939	 -0.500197
C	 -1.945526	 0.411052	 0.000603
H	 -0.794329	 -1.203792	 -0.868145
H	 -0.791555	 -1.205429	 0.862701
C	 -3.282915	 -0.321280	 0.002596
H	 -1.880300	 1.059126	 -0.864925
H	 -1.877207	 1.057892	 0.866807
H	 -3.388495	 -0.952755	 -0.873419
H	 -4.107811	 0.380864	 0.004116
H	 -3.385717	 -0.953283	 0.878571
C	 1.681625	 2.116568	 -0.565888
H	 2.098772	 2.257058	 0.420167
H	 1.405083	 3.067098	 -0.992158
H	 2.412284	 1.625613	 -1.191302
