11

H	 -1.835082	 1.385983	 0.000069
C	 -1.300516	 0.441153	 -0.000028
O	 -0.006604	 0.654344	 -0.000106
O	 -1.828920	 -0.612308	 0.000113
C	 0.469473	 1.839934	 0.630411
C	 1.973884	 1.859407	 0.499767
H	 0.158779	 1.833898	 1.665491
H	 0.016155	 2.696262	 0.151696
H	 2.413772	 0.994633	 0.980014
H	 2.368882	 2.751580	 0.970785
H	 2.270435	 1.861305	 -0.541397
