25

H	 -8.011086	 3.637734	 0.425253
C	 -7.850631	 2.615919	 0.055075
C	 -6.830112	 1.817771	 0.820186
O	 -8.452910	 2.225788	 -0.884268
C	 -5.843793	 1.084992	 -0.094080
H	 -6.320313	 2.479744	 1.508104
H	 -7.383494	 1.087753	 1.406826
C	 -4.913739	 2.018748	 -0.865626
H	 -5.252408	 0.407697	 0.512446
H	 -6.396033	 0.460637	 -0.792225
C	 -5.641798	 2.853761	 -1.915610
H	 -4.138180	 1.428773	 -1.346816
H	 -4.400559	 2.681438	 -0.173588
C	 -6.900381	 3.527547	 -1.372262
H	 -4.958499	 3.601524	 -2.305865
H	 -5.911515	 2.217724	 -2.755852
C	 -7.827821	 4.111512	 -2.439380
H	 -6.614724	 4.314215	 -0.677756
H	 -7.459838	 2.800038	 -0.790848
C	 -7.244121	 5.287623	 -3.218572
H	 -8.743922	 4.435874	 -1.955707
H	 -8.114795	 3.326049	 -3.133643
H	 -6.941812	 6.086551	 -2.549005
H	 -6.377675	 4.999038	 -3.801388
H	 -7.976863	 5.694192	 -3.906144
