22

O	 -1.620904	 -0.982684	 -2.190023
C	 -0.711807	 -0.218277	 -2.164405
C	 -0.441539	 0.634470	 -0.940548
C	 0.230305	 -0.068780	 -3.335235
C	 0.376695	 -0.140025	 0.100361
H	 -1.398355	 0.912307	 -0.516968
H	 0.083368	 1.541146	 -1.222112
C	 1.630207	 -0.772146	 -0.501001
H	 0.641216	 0.540912	 0.899474
H	 -0.238125	 -0.919585	 0.543737
C	 2.907848	 -0.545876	 0.309149
H	 1.772784	 -0.391628	 -1.509394
H	 1.468529	 -1.842059	 -0.599744
C	 3.373802	 0.906639	 0.372125
H	 3.699140	 -1.146831	 -0.127906
H	 2.764321	 -0.923458	 1.318191
H	 3.519798	 1.311927	 -0.623875
H	 4.316899	 0.983758	 0.900700
H	 2.661122	 1.540651	 0.885346
H	 0.097444	 0.913736	 -3.776833
H	 0.026756	 -0.826968	 -4.075700
H	 1.261744	 -0.135754	 -3.007764
