24

H	 -3.436473	 1.252944	 -1.023892
O	 -3.458596	 0.315260	 -0.960865
C	 -3.176635	 -0.080824	 0.355601
C	 -1.763371	 0.265266	 0.799691
H	 -3.321825	 -1.153438	 0.379502
H	 -3.895468	 0.357385	 1.043382
C	 -0.673390	 -0.426948	 -0.013392
H	 -1.631049	 1.344913	 0.747560
H	 -1.664587	 -0.001624	 1.849167
C	 0.737842	 -0.043159	 0.423759
H	 -0.806103	 -0.190518	 -1.063345
H	 -0.797221	 -1.503753	 0.074146
C	 1.824000	 -0.743224	 -0.390623
H	 0.850588	 1.033777	 0.343840
H	 0.868587	 -0.286314	 1.476203
C	 2.871314	 -1.488023	 0.438989
H	 2.322832	 -0.013737	 -1.024551
H	 1.349843	 -1.452940	 -1.063006
C	 3.759852	 -0.592098	 1.298618
H	 3.502536	 -2.057080	 -0.236665
H	 2.373838	 -2.216974	 1.073472
H	 4.266140	 0.151494	 0.691313
H	 4.519770	 -1.176448	 1.804881
H	 3.193379	 -0.067919	 2.058848
