25

O	 2.746111	 -0.273030	 -1.453264
C	 2.361335	 -1.393962	 -1.378633
C	 0.939859	 -1.738219	 -0.982750
C	 3.274145	 -2.561874	 -1.676937
C	 0.057430	 -0.533127	 -0.689662
H	 0.514793	 -2.342105	 -1.781317
H	 0.991059	 -2.397569	 -0.119244
C	 -1.363077	 -0.928146	 -0.295666
H	 0.032524	 0.109810	 -1.562088
H	 0.509327	 0.054365	 0.101398
C	 -2.258482	 0.271340	 0.000669
H	 -1.809136	 -1.519084	 -1.092596
H	 -1.330189	 -1.574425	 0.578693
C	 -2.305585	 1.289336	 -1.135201
H	 -1.912161	 0.761771	 0.907119
H	 -3.266549	 -0.077322	 0.211297
C	 -3.572900	 2.137654	 -1.127623
H	 -1.437227	 1.939525	 -1.070796
H	 -2.226298	 0.769809	 -2.086371
H	 -3.663669	 2.697063	 -0.202494
H	 -3.574663	 2.849112	 -1.945453
H	 -4.458537	 1.518747	 -1.225834
H	 2.867789	 -3.156743	 -2.487525
H	 4.254405	 -2.200723	 -1.947219
H	 3.349649	 -3.208357	 -0.809527
