20

H	 1.914825	 -2.484613	 -1.706158
O	 1.732351	 -2.096118	 -0.856140
C	 0.962692	 -1.025003	 -1.047853
C	 0.624473	 -0.343591	 0.253101
O	 0.610526	 -0.686200	 -2.130538
C	 -0.265902	 0.883932	 0.072916
H	 0.165294	 -1.090697	 0.892132
H	 1.564153	 -0.080208	 0.732041
C	 -1.728698	 0.646073	 0.462102
H	 -0.209144	 1.219470	 -0.958188
H	 0.135059	 1.692851	 0.673903
C	 -2.482460	 -0.343073	 -0.431425
H	 -2.245265	 1.602650	 0.432430
H	 -1.779332	 0.308348	 1.496285
C	 -3.960546	 -0.461025	 -0.060175
H	 -2.395034	 -0.026811	 -1.468912
H	 -2.024850	 -1.327147	 -0.371646
H	 -4.472726	 -1.168004	 -0.705284
H	 -4.465146	 0.496508	 -0.151489
H	 -4.081218	 -0.800940	 0.964585
