22

O	 4.543006	 0.820769	 -2.064672
C	 3.430171	 1.137151	 -1.794610
C	 2.249775	 0.578159	 -2.564182
C	 3.130845	 2.092946	 -0.664288
C	 1.833230	 -0.791973	 -2.014571
H	 2.551172	 0.478006	 -3.599189
H	 1.411112	 1.264711	 -2.517741
C	 1.630207	 -0.772146	 -0.501001
H	 0.922915	 -1.096316	 -2.515500
H	 2.590022	 -1.532095	 -2.263134
C	 2.907848	 -0.545876	 0.309149
H	 1.169537	 -1.706758	 -0.190740
H	 0.920910	 0.013106	 -0.254262
C	 3.373802	 0.906639	 0.372125
H	 3.699140	 -1.146831	 -0.127906
H	 2.764321	 -0.923458	 1.318191
H	 3.519798	 1.311927	 -0.623875
H	 4.316899	 0.983758	 0.900700
H	 2.661122	 1.540651	 0.885346
H	 2.738277	 3.018172	 -1.073979
H	 4.029736	 2.299875	 -0.104159
H	 2.369655	 1.684627	 -0.008960
