21

H	 -1.809258	 3.907668	 -0.899744
O	 -1.121528	 3.314995	 -1.140494
C	 -1.067312	 2.244797	 -0.234870
C	 0.051203	 1.313167	 -0.655717
H	 -0.886321	 2.608894	 0.774313
H	 -2.013024	 1.706890	 -0.224160
C	 0.196029	 0.106276	 0.266738
H	 0.978122	 1.877529	 -0.678903
H	 -0.139072	 0.984958	 -1.672570
C	 1.330220	 -0.826136	 -0.155230
H	 0.360637	 0.452251	 1.282573
H	 -0.736959	 -0.453110	 0.280980
C	 2.719700	 -0.407669	 0.328325
H	 1.339388	 -0.911200	 -1.239363
H	 1.119001	 -1.821953	 0.224128
C	 3.241564	 0.893452	 -0.276737
H	 3.418299	 -1.204729	 0.093035
H	 2.711776	 -0.323368	 1.411960
H	 3.254204	 0.841071	 -1.360784
H	 2.634460	 1.745075	 0.005842
H	 4.254264	 1.092401	 0.054971
