17

O	 0.623644	 1.346775	 0.050760
C	 0.484933	 0.171168	 0.027162
C	 1.606813	 -0.836419	 0.023517
O	 -0.695554	 -0.422406	 0.000602
C	 2.988431	 -0.203037	 0.054008
H	 1.476776	 -1.458281	 -0.855305
H	 1.453419	 -1.490617	 0.874652
H	 3.143156	 0.435640	 -0.805276
H	 3.750544	 -0.972787	 0.049914
H	 3.119602	 0.403027	 0.940410
C	 -1.852370	 0.402254	 0.000718
C	 -3.063338	 -0.501097	 -0.000437
H	 -1.831732	 1.039442	 -0.872158
H	 -1.832493	 1.038301	 0.874430
H	 -3.071944	 -1.133732	 -0.879113
H	 -3.966302	 0.097976	 -0.000483
H	 -3.072764	 -1.134834	 0.877435
