10

H	 2.828711	 -0.346904	 0.001083
C	 1.876752	 0.015931	 -0.363450
C	 0.776285	 -0.474665	 0.563092
H	 1.728113	 -0.357244	 -1.367440
H	 1.906171	 1.096574	 -0.386153
N	 -0.540022	 0.017605	 0.071630
H	 0.707111	 -1.548969	 0.573035
H	 0.886169	 -0.084184	 1.560432
O	 -1.409798	 -0.779402	 -0.040012
O	 -0.620390	 1.167920	 -0.201705
