29

O	 2.996827	 0.228511	 -1.470465
C	 2.578714	 -0.338223	 -0.512835
C	 1.138596	 -0.358030	 -0.060666
O	 3.347903	 -1.046386	 0.304773
C	 0.210637	 0.434548	 -0.978724
H	 0.843266	 -1.399255	 0.015640
H	 1.112992	 0.032851	 0.953362
C	 -1.235344	 0.511781	 -0.477060
H	 0.232198	 -0.001089	 -1.973145
H	 0.604279	 1.439742	 -1.083859
C	 -1.983368	 -0.824305	 -0.455988
H	 -1.777591	 1.203377	 -1.117675
H	 -1.250303	 0.949734	 0.519928
C	 -3.452203	 -0.677524	 -0.053521
H	 -1.924904	 -1.282549	 -1.442098
H	 -1.498489	 -1.514382	 0.230785
C	 -4.208336	 -2.007005	 -0.023969
H	 -3.948397	 0.001826	 -0.744542
H	 -3.511628	 -0.209534	 0.927883
C	 -5.675356	 -1.851212	 0.375133
H	 -4.149106	 -2.476484	 -1.003624
H	 -3.716383	 -2.685892	 0.669482
H	 -6.184172	 -2.810155	 0.387039
H	 -6.204157	 -1.204936	 -0.319772
H	 -5.767993	 -1.415390	 1.365966
C	 4.728119	 -1.109107	 -0.004993
H	 4.882018	 -1.033965	 -1.071845
H	 5.068212	 -2.067527	 0.355250
H	 5.265056	 -0.311663	 0.488280
