16

H	 3.273419	 0.176595	 -0.102789
N	 2.433987	 -0.362316	 -0.080024
C	 1.263552	 0.494993	 0.021953
H	 2.497638	 -0.973615	 0.707122
C	 -0.016533	 -0.325589	 -0.026925
H	 1.280915	 1.180773	 -0.818522
H	 1.263064	 1.106893	 0.925038
C	 -1.280353	 0.525521	 0.047747
H	 -0.016686	 -0.912532	 -0.939714
H	 -0.014099	 -1.037598	 0.796369
C	 -1.972659	 0.685365	 -1.301754
H	 -1.029156	 1.507240	 0.440294
H	 -1.974628	 0.082995	 0.756991
H	 -1.315270	 1.156396	 -2.024733
H	 -2.863415	 1.297118	 -1.216530
H	 -2.269768	 -0.276936	 -1.705341
