29

O	 3.219313	 0.959291	 -0.614106
C	 2.698710	 0.058177	 -0.050237
C	 1.246364	 -0.005813	 0.348416
O	 3.344101	 -1.038700	 0.312317
C	 0.453207	 1.232821	 -0.049003
H	 0.839270	 -0.907818	 -0.092281
H	 1.216683	 -0.160521	 1.422434
C	 -0.998367	 1.217982	 0.432195
H	 0.481498	 1.345443	 -1.127236
H	 0.951413	 2.105557	 0.354893
C	 -1.882951	 0.151251	 -0.211235
H	 -1.429490	 2.193659	 0.228843
H	 -1.019755	 1.099323	 1.513279
C	 -3.373821	 0.438980	 -0.055329
H	 -1.640711	 0.078163	 -1.268992
H	 -1.667785	 -0.822513	 0.218909
C	 -3.868096	 0.322252	 1.383712
H	 -3.938945	 -0.244848	 -0.684101
H	 -3.587387	 1.438699	 -0.426566
C	 -5.358618	 0.609322	 1.531060
H	 -3.655573	 -0.676235	 1.755973
H	 -3.306160	 1.007138	 2.013010
H	 -5.676366	 0.518169	 2.563393
H	 -5.950514	 -0.082297	 0.940778
H	 -5.598418	 1.613997	 1.198896
C	 4.720529	 -1.114346	 0.001449
H	 4.874321	 -1.055557	 -1.065852
H	 5.057824	 -2.067950	 0.373977
H	 5.264321	 -0.313596	 0.480350
