25

O	 -4.741559	 3.677983	 3.374923
C	 -3.562142	 3.759984	 3.486103
C	 -2.630085	 2.634875	 3.084568
C	 -2.907686	 5.004973	 4.041002
C	 -2.930863	 2.021940	 1.724174
H	 -1.614819	 3.023858	 3.116108
H	 -2.673335	 1.879345	 3.865793
C	 -2.982578	 3.063528	 0.609933
H	 -3.873726	 1.489437	 1.774825
H	 -2.178341	 1.275670	 1.496305
C	 -3.283719	 2.461848	 -0.759602
H	 -3.737671	 3.809983	 0.846393
H	 -2.034444	 3.594943	 0.566329
C	 -4.555427	 1.618766	 -0.786195
H	 -2.441924	 1.850454	 -1.075342
H	 -3.368579	 3.261391	 -1.491488
C	 -4.391608	 0.265198	 -0.102963
H	 -5.360751	 2.168592	 -0.306526
H	 -4.863534	 1.466281	 -1.817087
H	 -4.117070	 0.384058	 0.939890
H	 -5.311293	 -0.307411	 -0.139298
H	 -3.616380	 -0.323536	 -0.581980
H	 -2.221465	 5.423139	 3.312795
H	 -3.662109	 5.735040	 4.290482
H	 -2.329392	 4.760820	 4.925313
