12

H	 -0.525791	 -1.610206	 -0.297752
N	 -0.626943	 -0.667432	 -0.000092
C	 -1.937071	 -0.217586	 0.412122
C	 0.469286	 0.129090	 0.000148
H	 -2.652453	 -0.310617	 -0.398174
H	 -1.863209	 0.819454	 0.696411
H	 -2.295861	 -0.790603	 1.260623
C	 1.788933	 -0.616240	 -0.000037
O	 0.411098	 1.327768	 -0.000049
H	 1.872803	 -1.245775	 -0.880381
H	 2.595421	 0.101576	 0.003713
H	 1.870096	 -1.252171	 0.875943
