16

O   -2.081319   -0.951530    -0.502732
N   -1.613558   0.006676    0.014756
C   -0.329345   -0.171618    0.743966
O   -2.068523   1.100482    -0.024385
C   0.835904   0.041968    -0.213982
H   -0.346048   -1.174374    1.137184
H   -0.333613   0.555559    1.538590
C   2.177039   -0.130175    0.494460
H   0.754456   -0.665923    -1.030569
H   0.765464   1.037260    -0.637266
C   3.361286   0.085640    -0.441202
H   2.232897   -1.125820    0.924586
H   2.239538   0.568390    1.323621
H   3.343919   -0.621505    -1.262994
H   3.349290   1.084580    -0.862736
H   4.299069   -0.040938    0.085773
