19

O	 -2.071633	 -1.227563	 -0.223463
C	 -1.652164	 -0.152425	 0.058082
C	 -0.327811	 0.006324	 0.778296
C	 -2.402515	 1.108629	 -0.298924
C	 0.708929	 -0.994624	 0.254180
H	 0.045306	 1.018179	 0.659727
H	 -0.504397	 -0.170762	 1.831527
C	 0.367928	 -2.438029	 0.612694
H	 1.690465	 -0.749996	 0.652223
H	 0.776827	 -0.891853	 -0.823406
C	 1.389636	 -3.438213	 0.082690
H	 0.295202	 -2.533662	 1.692550
H	 -0.614059	 -2.680836	 0.217363
H	 2.376675	 -3.242526	 0.488268
H	 1.461281	 -3.387929	 -0.998378
H	 1.118045	 -4.452814	 0.349569
H	 -3.240910	 0.874416	 -0.936711
H	 -1.747554	 1.818823	 -0.790984
H	 -2.760419	 1.579708	 0.610998
