16

H	 -3.260447	 0.495616	 -0.426815
C	 -2.850581	 1.501265	 -0.367125
O	 -1.490671	 1.513365	 -0.646478
H	 -3.344352	 2.121922	 -1.100517
H	 -3.058845	 1.899116	 0.624453
C	 -0.718530	 0.758693	 0.228682
C	 0.718529	 0.758687	 -0.228709
H	 -0.769011	 1.177548	 1.233660
H	 -1.079285	 -0.266597	 0.274156
O	 1.401606	 -0.295166	 0.366636
H	 0.748705	 0.673477	 -1.312803
H	 1.176496	 1.708671	 0.046552
C	 2.714315	 -0.441627	 -0.061017
H	 2.765292	 -0.641548	 -1.128869
H	 3.305661	 0.447341	 0.150952
H	 3.143725	 -1.278506	 0.470147
