16

O	 -2.081319	 -0.951530	 -0.502732
N	 -1.613558	 0.006676	 0.014756
C	 -0.329345	 -0.171618	 0.743966
O	 -2.068523	 1.100482	 -0.024385
C	 0.739424	 -0.673242	 -0.218943
H	 -0.527648	 -0.882945	 1.528254
H	 -0.080643	 0.793987	 1.151379
C	 2.077791	 -0.869047	 0.488588
H	 0.409658	 -1.609458	 -0.654043
H	 0.848344	 0.041072	 -1.026798
C	 3.167942	 -1.364302	 -0.455220
H	 1.955444	 -1.577176	 1.302849
H	 2.388522	 0.068963	 0.939133
H	 2.899780	 -2.318139	 -0.895653
H	 3.334443	 -0.660780	 -1.263335
H	 4.105924	 -1.493611	 0.070738
