13

H	 0.250317	 -1.048115	 -1.435363
C	 0.390193	 0.033974	 -1.563251
C	 0.062554	 0.862911	 -0.350953
O	 0.778662	 0.462604	 -2.594039
C	 -1.339253	 0.577611	 0.196911
H	 0.184850	 1.907974	 -0.604690
H	 0.800859	 0.612749	 0.407598
C	 -1.813142	 -0.849710	 -0.061612
H	 -2.032833	 1.276441	 -0.256032
H	 -1.357249	 0.782269	 1.263793
H	 -1.839268	 -1.063526	 -1.124230
H	 -2.810118	 -1.001930	 0.334000
H	 -1.159274	 -1.579980	 0.402282
