25

H	 -6.264054	 5.486797	 0.179074
C	 -6.610690	 4.464564	 0.383450
C	 -5.640297	 3.607928	 1.150524
O	 -7.670857	 4.111392	 -0.002066
C	 -5.473817	 2.211720	 0.543431
H	 -4.694836	 4.130813	 1.214006
H	 -6.038764	 3.514123	 2.158358
C	 -4.789956	 2.214817	 -0.822038
H	 -4.898223	 1.604275	 1.233389
H	 -6.448094	 1.735784	 0.463028
C	 -5.641798	 2.853761	 -1.915610
H	 -4.550619	 1.192125	 -1.101191
H	 -3.839529	 2.738100	 -0.756534
C	 -6.900381	 3.527547	 -1.372262
H	 -5.037082	 3.575553	 -2.455684
H	 -5.927719	 2.092630	 -2.638262
C	 -7.827821	 4.111512	 -2.439380
H	 -6.614724	 4.314215	 -0.677756
H	 -7.459838	 2.800038	 -0.790848
C	 -7.244121	 5.287623	 -3.218572
H	 -8.743922	 4.435874	 -1.955707
H	 -8.114795	 3.326049	 -3.133643
H	 -6.941812	 6.086551	 -2.549005
H	 -6.377675	 4.999038	 -3.801388
H	 -7.976863	 5.694192	 -3.906144
