16

H	 2.120964	 -1.060470	 0.500743
C	 1.949462	 -0.185634	 -0.138046
C	 0.692068	 0.589600	 0.160137
O	 2.728154	 0.091765	 -0.991754
C	 -0.558097	 -0.297372	 0.091132
H	 0.629138	 1.416471	 -0.537577
H	 0.786569	 1.002139	 1.163985
C	 -1.850991	 0.512573	 -0.019058
H	 -0.476753	 -0.965681	 -0.762987
H	 -0.604799	 -0.930658	 0.975228
C	 -3.096943	 -0.368295	 -0.099594
H	 -1.800724	 1.150330	 -0.898172
H	 -1.931651	 1.177355	 0.838044
H	 -3.060452	 -1.020287	 -0.967456
H	 -3.996858	 0.233488	 -0.175704
H	 -3.191959	 -0.995686	 0.782074
