23

O	 -0.661489	 -1.654523	 1.661367
C	 -1.523129	 -1.436538	 0.878753
C	 -2.789244	 -2.244153	 0.783920
O	 -1.481217	 -0.452708	 0.001092
H	 -3.292492	 -2.208695	 1.740771
H	 -3.443818	 -1.877968	 0.009271
H	 -2.525724	 -3.274947	 0.588738
C	 -0.332055	 0.384012	 -0.000250
C	 0.892252	 -0.506059	 -0.000295
H	 -0.360822	 1.020205	 -0.874146
H	 -0.359817	 1.021310	 0.872861
C	 2.188199	 0.299473	 -0.001416
H	 0.857046	 -1.152781	 -0.871031
H	 0.857910	 -1.151798	 0.871202
C	 3.203615	 -0.203302	 -1.023802
H	 1.965519	 1.344259	 -0.203439
H	 2.634512	 0.269543	 0.989484
C	 4.499249	 0.600650	 -1.024424
H	 2.759381	 -0.172215	 -2.014632
H	 3.427042	 -1.247227	 -0.822833
H	 4.312537	 1.643784	 -1.256496
H	 5.197377	 0.218473	 -1.759995
H	 4.985205	 0.560705	 -0.055350
