27

H	 1.497285	 -5.478209	 -0.661010
O	 2.353556	 -5.241759	 -0.965512
C	 2.260791	 -4.249585	 -1.953569
C	 1.878556	 -2.882471	 -1.406229
H	 3.239605	 -4.195549	 -2.410716
H	 1.559257	 -4.550846	 -2.729159
C	 0.473689	 -2.815358	 -0.811508
H	 2.607957	 -2.594960	 -0.654916
H	 1.960453	 -2.163010	 -2.217442
C	 0.113298	 -1.420414	 -0.302504
H	 0.394284	 -3.528549	 0.002160
H	 -0.251278	 -3.118278	 -1.565133
C	 -1.311023	 -1.277304	 0.237018
H	 0.820601	 -1.128620	 0.470028
H	 0.245115	 -0.711810	 -1.115506
C	 -2.041121	 -0.006551	 -0.194127
H	 -1.888548	 -2.136293	 -0.093331
H	 -1.289731	 -1.328757	 1.323321
C	 -3.489218	 0.042606	 0.286507
H	 -2.022185	 0.066287	 -1.279394
H	 -1.518764	 0.869305	 0.178730
C	 -4.219984	 1.311773	 -0.139038
H	 -4.022855	 -0.824300	 -0.093339
H	 -3.510372	 -0.038577	 1.370031
H	 -4.244251	 1.405725	 -1.219696
H	 -5.244345	 1.313233	 0.215630
H	 -3.732090	 2.196311	 0.257073
