29

O	 3.219313	 0.959291	 -0.614106
C	 2.698710	 0.058177	 -0.050237
C	 1.246364	 -0.005813	 0.348416
O	 3.344101	 -1.038700	 0.312317
C	 0.453207	 1.232821	 -0.049003
H	 0.839270	 -0.907818	 -0.092281
H	 1.216683	 -0.160521	 1.422434
C	 -0.998367	 1.217982	 0.432195
H	 0.481498	 1.345443	 -1.127236
H	 0.951413	 2.105557	 0.354893
C	 -1.882951	 0.151251	 -0.211235
H	 -1.429490	 2.193659	 0.228843
H	 -1.019755	 1.099323	 1.513279
C	 -3.342450	 0.243269	 0.226009
H	 -1.826223	 0.246578	 -1.293162
H	 -1.508033	 -0.839650	 0.027695
C	 -4.141167	 1.294283	 -0.539624
H	 -3.385108	 0.466298	 1.289389
H	 -3.816781	 -0.727385	 0.100682
C	 -5.597644	 1.381475	 -0.095947
H	 -3.668527	 2.264769	 -0.415173
H	 -4.101859	 1.071227	 -1.602430
H	 -6.135550	 2.135789	 -0.658665
H	 -5.671649	 1.638208	 0.955585
H	 -6.108051	 0.434953	 -0.240132
C	 4.720529	 -1.114346	 0.001449
H	 4.874321	 -1.055557	 -1.065852
H	 5.057824	 -2.067950	 0.373977
H	 5.264321	 -0.313596	 0.480350
