24

H	 -3.436473	 1.252944	 -1.023892
O	 -3.458596	 0.315260	 -0.960865
C	 -3.176635	 -0.080824	 0.355601
C	 -1.763371	 0.265266	 0.799691
H	 -3.321825	 -1.153438	 0.379502
H	 -3.895468	 0.357385	 1.043382
C	 -0.673390	 -0.426948	 -0.013392
H	 -1.631049	 1.344913	 0.747560
H	 -1.664587	 -0.001624	 1.849167
C	 -1.224206	 -1.284177	 -1.149936
H	 -0.070759	 -1.041112	 0.646572
H	 -0.004909	 0.326991	 -0.422311
C	 -0.127999	 -1.970133	 -1.962858
H	 -1.898581	 -2.027367	 -0.735478
H	 -1.824108	 -0.663542	 -1.812346
C	 -0.625981	 -2.776745	 -3.163374
H	 0.448744	 -2.620757	 -1.309478
H	 0.563614	 -1.212419	 -2.320854
C	 -1.459672	 -4.004842	 -2.805772
H	 0.235050	 -3.098176	 -3.741374
H	 -1.203121	 -2.127630	 -3.816812
H	 -0.909879	 -4.670080	 -2.147545
H	 -1.720676	 -4.564912	 -3.696525
H	 -2.383986	 -3.737171	 -2.308176
