9

H	 -2.121780	 1.327903	 1.364299
C	 -1.117550	 0.927860	 1.413881
C	 -0.600949	 0.658697	 -0.000002
H	 -1.139534	 0.017119	 1.997107
H	 -0.488117	 1.643503	 1.925502
C	 0.763408	 0.112229	 -0.000006
H	 -1.238540	 -0.048464	 -0.514136
H	 -0.590792	 1.568759	 -0.585338
N	 1.806008	 -0.317179	 0.000007
