20

H	 3.729471	 -0.928294	 -0.070608
O	 2.826016	 -1.159218	 0.122261
C	 2.077727	 -0.067559	 -0.035091
C	 0.624473	 -0.343591	 0.253101
O	 2.542965	 0.974826	 -0.363729
C	 -0.265902	 0.883932	 0.072916
H	 0.324016	 -1.163849	 -0.390541
H	 0.565024	 -0.726111	 1.268924
C	 -1.728698	 0.646073	 0.462102
H	 -0.209144	 1.219470	 -0.958188
H	 0.135059	 1.692851	 0.673903
C	 -2.515316	 1.909691	 0.821905
H	 -1.745146	 -0.027030	 1.316165
H	 -2.238756	 0.121557	 -0.344669
C	 -3.933847	 1.601760	 1.300889
H	 -1.982303	 2.454219	 1.598713
H	 -2.570024	 2.574964	 -0.035884
H	 -4.471556	 2.511751	 1.548073
H	 -3.920570	 0.973731	 2.187022
H	 -4.501254	 1.079951	 0.535382
