28

H	 1.854582	 0.635384	 6.251344
C	 1.416277	 -0.228775	 5.761812
C	 0.506947	 0.192123	 4.608061
H	 2.229072	 -0.856077	 5.407979
H	 0.866523	 -0.790597	 6.512096
C	 -0.133578	 -1.003500	 3.899522
H	 1.081047	 0.771670	 3.892425
H	 -0.275885	 0.846861	 4.987776
C	 -1.063828	 -0.612477	 2.751044
H	 0.641855	 -1.658021	 3.517488
H	 -0.706671	 -1.579620	 4.622496
C	 -0.349264	 -0.064955	 1.524316
H	 -1.624753	 -1.484860	 2.419258
H	 -1.808979	 0.107372	 3.082320
C	 -1.181045	 0.701995	 0.511084
O	 0.818505	 -0.243537	 1.348729
C	 -2.285934	 -0.139295	 -0.145128
H	 -0.497643	 1.075518	 -0.242014
H	 -1.629340	 1.559411	 1.009636
C	 -3.651768	 0.085446	 0.506485
H	 -2.346596	 0.110469	 -1.202272
H	 -2.034737	 -1.195320	 -0.088721
C	 -4.759797	 -0.746382	 -0.137905
H	 -3.908762	 1.140117	 0.445781
H	 -3.588286	 -0.154158	 1.565709
H	 -4.868882	 -0.505166	 -1.191300
H	 -4.548009	 -1.809175	 -0.062213
H	 -5.715422	 -0.564821	 0.343442
