25

H	 2.284426	 4.666297	 1.305580
C	 2.540421	 4.120614	 2.222269
C	 1.431535	 3.270901	 2.788811
O	 3.625037	 4.224719	 2.696105
C	 0.828445	 2.318828	 1.746652
H	 1.817872	 2.731015	 3.645535
H	 0.657417	 3.950253	 3.143603
C	 1.798735	 1.230516	 1.280376
H	 -0.055029	 1.854983	 2.175146
H	 0.482431	 2.894077	 0.889262
C	 1.180775	 0.282413	 0.250794
H	 2.135105	 0.659981	 2.143621
H	 2.690540	 1.688157	 0.856359
C	 2.148627	 -0.814315	 -0.201312
H	 0.285150	 -0.163568	 0.675869
H	 0.855931	 0.854828	 -0.617079
C	 3.580890	 -0.659131	 0.322722
H	 2.166869	 -0.852443	 -1.289387
H	 1.762857	 -1.776509	 0.128956
C	 4.324889	 0.564933	 -0.213704
H	 4.142010	 -1.551473	 0.056605
H	 3.564836	 -0.624694	 1.410140
H	 4.342616	 0.565491	 -1.300421
H	 3.866655	 1.493402	 0.110242
H	 5.353900	 0.572371	 0.132816
