15

H	 -3.162190	 0.493205	 -0.000107
C	 -2.363908	 -0.234727	 0.000005
O	 -1.158738	 0.454634	 -0.000087
H	 -2.464314	 -0.863616	 -0.882153
H	 -2.464327	 -0.863359	 0.882345
C	 -0.028611	 -0.359694	 0.000037
C	 1.212847	 0.509314	 -0.000053
H	 -0.034155	 -1.007047	 -0.877198
H	 -0.034195	 -1.006836	 0.877430
C	 1.924170	 0.508696	 1.348416
H	 1.882530	 0.154875	 -0.775826
H	 0.927185	 1.519678	 -0.271184
H	 2.240594	 -0.490685	 1.628061
H	 2.806292	 1.136453	 1.320092
H	 1.278977	 0.883514	 2.136011
