23

O	 -3.408300	 0.116241	 -0.931597
C	 -2.668563	 0.129746	 -0.000350
C	 -2.977175	 0.812312	 1.307369
O	 -1.481751	 -0.454642	 0.000584
H	 -3.888003	 0.389438	 1.714102
H	 -2.171925	 0.703151	 2.018773
H	 -3.160348	 1.863007	 1.116666
C	 -0.334255	 0.388708	 0.000906
C	 0.891947	 -0.504646	 0.000751
H	 -0.365390	 1.025305	 -0.873475
H	 -0.365484	 1.024911	 0.875569
C	 2.191998	 0.301789	 0.000897
H	 0.855148	 -1.151283	 -0.871571
H	 0.855132	 -1.151660	 0.872805
C	 3.441114	 -0.581407	 0.000108
H	 2.215074	 0.954890	 -0.869742
H	 2.215465	 0.953923	 0.872248
C	 4.739576	 0.224112	 -0.001102
H	 3.419457	 -1.233487	 -0.870178
H	 3.420834	 -1.233096	 0.870717
H	 4.804918	 0.861552	 -0.878265
H	 5.606527	 -0.429058	 -0.001824
H	 4.806469	 0.861674	 0.875853
