17

O	 0.749630	 1.305591	 -0.000460
C	 0.576499	 0.134701	 -0.003900
C	 -0.765656	 -0.550508	 -0.002152
O	 1.564816	 -0.744612	 -0.000631
C	 -1.945526	 0.411052	 0.000603
H	 -0.794329	 -1.203792	 -0.868145
H	 -0.791555	 -1.205429	 0.862701
C	 -1.859718	 1.428288	 -1.132001
H	 -1.987280	 0.922645	 0.954502
H	 -2.866621	 -0.153447	 -0.078791
H	 -0.959134	 2.028685	 -1.055965
H	 -2.707732	 2.102009	 -1.111200
H	 -1.849451	 0.940310	 -2.101073
C	 2.884339	 -0.237801	 0.002883
H	 3.064150	 0.362814	 -0.876312
H	 3.533055	 -1.098529	 0.004958
H	 3.059365	 0.363432	 0.882614
