21

H	 -2.492252	 -1.762005	 -2.752388
O	 -2.469704	 -1.402360	 -1.885011
C	 -1.171345	 -0.970440	 -1.574970
C	 -1.175688	 -0.398187	 -0.171891
H	 -0.469789	 -1.799915	 -1.634666
H	 -0.843068	 -0.212390	 -2.283084
C	 0.196029	 0.106276	 0.266738
H	 -1.526172	 -1.165547	 0.511146
H	 -1.900343	 0.408784	 -0.132017
C	 1.330220	 -0.826136	 -0.155230
H	 0.359542	 1.097229	 -0.145561
H	 0.212134	 0.218135	 1.348778
C	 2.719700	 -0.407669	 0.328325
H	 1.339388	 -0.911200	 -1.239363
H	 1.119001	 -1.821953	 0.224128
C	 3.241564	 0.893452	 -0.276737
H	 3.418299	 -1.204729	 0.093035
H	 2.711776	 -0.323368	 1.411960
H	 3.254204	 0.841071	 -1.360784
H	 2.634460	 1.745075	 0.005842
H	 4.254264	 1.092401	 0.054971
