17

O	 0.749630	 1.305591	 -0.000460
C	 0.576499	 0.134701	 -0.003900
C	 -0.765656	 -0.550508	 -0.002152
O	 1.564816	 -0.744612	 -0.000631
C	 -1.945526	 0.411052	 0.000603
H	 -0.794329	 -1.203792	 -0.868145
H	 -0.791555	 -1.205429	 0.862701
C	 -1.743214	 1.570773	 -0.968438
H	 -2.095337	 0.789913	 1.004303
H	 -2.848303	 -0.130466	 -0.254606
H	 -0.860712	 2.148473	 -0.713952
H	 -2.593169	 2.242121	 -0.950263
H	 -1.623203	 1.217598	 -1.987356
C	 2.884339	 -0.237801	 0.002883
H	 3.064150	 0.362814	 -0.876312
H	 3.533055	 -1.098529	 0.004958
H	 3.059365	 0.363432	 0.882614
