20

O	 -2.440701	 -0.934798	 -0.415053
C	 -1.922978	 0.063265	 -0.045005
C	 -2.632749	 1.372204	 0.158357
O	 -0.637375	 0.157174	 0.243149
H	 -2.187724	 2.129143	 -0.474664
H	 -3.677681	 1.257276	 -0.079438
H	 -2.516788	 1.693160	 1.185542
C	 0.162530	 -1.009518	 0.097799
C	 1.587210	 -0.664190	 0.477086
H	 0.096803	 -1.356267	 -0.924704
H	 -0.233803	 -1.785900	 0.736810
C	 1.706456	 0.439632	 1.524522
H	 2.098796	 -0.359614	 -0.431897
H	 2.085040	 -1.562749	 0.828645
C	 3.155103	 0.778909	 1.859081
H	 1.201358	 1.330953	 1.161863
H	 1.187502	 0.136872	 2.426667
H	 3.210771	 1.566946	 2.600893
H	 3.693998	 1.114604	 0.979142
H	 3.677519	 -0.085347	 2.255516
