24

H	 -3.420663	 1.227371	 -1.044276
O	 -3.452007	 0.283848	 -0.965577
C	 -3.181085	 -0.079926	 0.364119
C	 -1.765924	 0.277073	 0.805136
H	 -3.327791	 -1.152017	 0.410903
H	 -3.905698	 0.375695	 1.036898
C	 -0.677594	 -0.417312	 -0.014550
H	 -1.637766	 1.358238	 0.744969
H	 -1.659588	 0.017670	 1.857098
C	 -0.973489	 -0.431208	 -1.515694
H	 -0.555381	 -1.434629	 0.344391
H	 0.272591	 0.084346	 0.161183
C	 0.123150	 -1.122677	 -2.330150
H	 -1.927865	 -0.924611	 -1.683439
H	 -1.092056	 0.591707	 -1.870927
C	 -0.084567	 -1.084232	 -3.848547
H	 0.212158	 -2.158625	 -2.006753
H	 1.076499	 -0.651278	 -2.100527
C	 -1.298680	 -1.871909	 -4.344429
H	 0.807084	 -1.480860	 -4.328062
H	 -0.168152	 -0.049187	 -4.173967
H	 -1.248614	 -2.908869	 -4.022955
H	 -1.345690	 -1.865272	 -5.429134
H	 -2.230889	 -1.456135	 -3.976622
