16

H	 -2.556457	 -0.318348	 1.785036
C	 -2.493167	 -0.664262	 0.755851
O	 -1.202971	 -0.543661	 0.257461
H	 -2.763902	 -1.709501	 0.723224
H	 -3.207048	 -0.099603	 0.158844
C	 -0.718530	 0.758693	 0.228682
C	 0.718529	 0.758687	 -0.228709
H	 -1.307726	 1.365350	 -0.458911
H	 -0.779916	 1.214111	 1.214712
O	 1.401606	 -0.295166	 0.366636
H	 0.748705	 0.673477	 -1.312803
H	 1.176496	 1.708671	 0.046552
C	 2.714315	 -0.441627	 -0.061017
H	 2.765292	 -0.641548	 -1.128869
H	 3.305661	 0.447341	 0.150952
H	 3.143725	 -1.278506	 0.470147
