20

O	 1.193569	 1.340228	 0.202460
C	 1.055638	 0.228897	 0.585837
C	 -0.235526	 -0.548364	 0.570812
O	 2.044389	 -0.491405	 1.089736
C	 -1.413045	 0.229353	 0.001137
H	 -0.055695	 -1.458030	 0.007207
H	 -0.430467	 -0.866173	 1.589859
C	 -2.702562	 -0.586401	 0.000228
H	 -1.178109	 0.546036	 -1.008842
H	 -1.553699	 1.138065	 0.575596
C	 -3.953810	 0.284959	 -0.000782
H	 -2.717793	 -1.238567	 -0.869075
H	 -2.719108	 -1.238472	 0.869576
H	 -3.983727	 0.924403	 -0.876454
H	 -4.852989	 -0.320147	 -0.001515
H	 -3.985140	 0.924399	 0.874841
C	 3.317948	 0.116768	 1.163849
H	 3.665273	 0.395497	 0.180029
H	 3.975189	 -0.620541	 1.595448
H	 3.284313	 0.997275	 1.788188
