16

H	 2.100255	 -0.919522	 -0.618233
C	 1.772102	 0.116444	 -0.775531
C	 0.692262	 0.592428	 0.156232
O	 2.261266	 0.768048	 -1.632132
C	 -0.554654	 -0.292621	 0.086567
H	 0.459509	 1.621120	 -0.085545
H	 1.098023	 0.565474	 1.165445
C	 -1.846385	 0.513195	 -0.016346
H	 -0.473986	 -0.956115	 -0.769708
H	 -0.597929	 -0.929215	 0.966651
C	 -3.089953	 -0.365049	 -0.098564
H	 -1.798267	 1.154820	 -0.891143
H	 -1.925398	 1.173265	 0.842889
H	 -3.055079	 -1.012299	 -0.968245
H	 -3.988403	 0.236438	 -0.170014
H	 -3.183055	 -0.995885	 0.779079
