20

O	 -2.440701	 -0.934798	 -0.415053
C	 -1.922978	 0.063265	 -0.045005
C	 -2.632749	 1.372204	 0.158357
O	 -0.637375	 0.157174	 0.243149
H	 -2.187724	 2.129143	 -0.474664
H	 -3.677681	 1.257276	 -0.079438
H	 -2.516788	 1.693160	 1.185542
C	 0.162530	 -1.009518	 0.097799
C	 1.587210	 -0.664190	 0.477086
H	 0.096803	 -1.356267	 -0.924704
H	 -0.233803	 -1.785900	 0.736810
C	 2.138865	 -1.476994	 1.645328
H	 1.607625	 0.392883	 0.727916
H	 2.223211	 -0.790094	 -0.393827
C	 3.564237	 -1.081307	 2.015952
H	 1.491544	 -1.345037	 2.508265
H	 2.108691	 -2.531356	 1.395824
H	 3.929221	 -1.670007	 2.849382
H	 3.621179	 -0.035582	 2.299871
H	 4.241580	 -1.233651	 1.182277
