11

O	 -0.294688	 1.318815	 -0.000872
C	 -0.448732	 0.145721	 -0.000187
C	 -1.780748	 -0.548101	 0.000195
O	 0.550743	 -0.719877	 0.000412
H	 -1.859389	 -1.183260	 -0.872613
H	 -2.570236	 0.185547	 -0.001342
H	 -1.860233	 -1.180337	 0.875064
C	 1.850723	 -0.208595	 -0.218010
H	 1.913329	 0.272517	 -1.182707
H	 2.514081	 -1.057285	 -0.181048
H	 2.113265	 0.504248	 0.549420
