21

H	 -0.575033	 4.300692	 1.549228
O	 0.102813	 3.708137	 1.281648
C	 -0.440210	 2.442513	 1.013805
C	 0.681126	 1.517313	 0.586331
H	 -0.932130	 2.044283	 1.898791
H	 -1.187259	 2.507874	 0.225468
C	 0.196029	 0.106276	 0.266738
H	 1.421807	 1.485831	 1.379186
H	 1.171140	 1.948781	 -0.280640
C	 1.330220	 -0.826136	 -0.155230
H	 -0.313025	 -0.300476	 1.135145
H	 -0.543652	 0.148997	 -0.529898
C	 2.719700	 -0.407669	 0.328325
H	 1.339388	 -0.911200	 -1.239363
H	 1.119001	 -1.821953	 0.224128
C	 3.241564	 0.893452	 -0.276737
H	 3.418299	 -1.204729	 0.093035
H	 2.711776	 -0.323368	 1.411960
H	 3.254204	 0.841071	 -1.360784
H	 2.634460	 1.745075	 0.005842
H	 4.254264	 1.092401	 0.054971
