13

H	 3.442172	 0.414151	 -0.713295
C	 2.732421	 0.225749	 0.081714
C	 1.322304	 0.099773	 -0.484271
H	 3.036122	 -0.682920	 0.589116
H	 2.801601	 1.044372	 0.789110
C	 0.308557	 -0.162619	 0.622645
H	 1.278785	 -0.711927	 -1.199801
H	 1.046675	 1.008881	 -1.004355
N	 -1.069352	 -0.004081	 0.085342
H	 0.371632	 -1.172932	 0.991288
H	 0.400391	 0.548875	 1.426218
O	 -1.584901	 -0.965470	 -0.377818
O	 -1.548033	 1.079343	 0.130056
