27

H	 1.333865	 1.703308	 -2.997354
O	 2.181500	 1.335243	 -3.164305
C	 2.777113	 0.922771	 -1.962480
C	 2.147740	 -0.330438	 -1.372527
H	 3.815000	 0.729839	 -2.198168
H	 2.757208	 1.729789	 -1.232566
C	 0.700587	 -0.151643	 -0.919065
H	 2.204410	 -1.125407	 -2.110070
H	 2.754228	 -0.641812	 -0.525404
C	 0.113298	 -1.420414	 -0.302504
H	 0.094439	 0.152567	 -1.765849
H	 0.648561	 0.655851	 -0.190688
C	 -1.311023	 -1.277304	 0.237018
H	 0.139426	 -2.220108	 -1.038734
H	 0.758335	 -1.738757	 0.511778
C	 -2.041121	 -0.006551	 -0.194127
H	 -1.888548	 -2.136293	 -0.093331
H	 -1.289731	 -1.328757	 1.323321
C	 -3.489218	 0.042606	 0.286507
H	 -2.022185	 0.066287	 -1.279394
H	 -1.518764	 0.869305	 0.178730
C	 -4.219984	 1.311773	 -0.139038
H	 -4.022855	 -0.824300	 -0.093339
H	 -3.510372	 -0.038577	 1.370031
H	 -4.244251	 1.405725	 -1.219696
H	 -5.244345	 1.313233	 0.215630
H	 -3.732090	 2.196311	 0.257073
