17

O	 -1.780742	 -2.026189	 1.060340
C	 -0.788535	 -1.615302	 0.561795
C	 0.517672	 -2.364308	 0.480107
O	 -0.695554	 -0.422406	 0.000602
C	 0.463108	 -3.745658	 1.112457
H	 1.273037	 -1.744337	 0.950224
H	 0.790572	 -2.420243	 -0.567907
H	 0.206757	 -3.683897	 2.161594
H	 1.426120	 -4.233578	 1.023638
H	 -0.280104	 -4.365966	 0.629672
C	 -1.852370	 0.402254	 0.000718
C	 -3.063338	 -0.501097	 -0.000437
H	 -1.831732	 1.039442	 -0.872158
H	 -1.832493	 1.038301	 0.874430
H	 -3.071944	 -1.133732	 -0.879113
H	 -3.966302	 0.097976	 -0.000483
H	 -3.072764	 -1.134834	 0.877435
