13

H	 -3.941973	 0.934228	 -0.390224
C	 -3.240162	 0.342701	 0.161016
C	 -2.105997	 -0.000418	 -0.398703
H	 -3.485368	 0.047206	 1.162193
O	 -1.491627	 0.776982	 -1.319585
H	 -1.595500	 -0.912420	 -0.148157
C	 -0.353774	 0.295611	 -1.941430
C	 -0.680487	 -0.460318	 -3.212989
H	 0.220055	 -0.363064	 -1.300618
H	 0.261838	 1.139420	 -2.214282
F	 0.437054	 -0.866404	 -3.781564
F	 -1.417604	 -1.524295	 -2.976098
F	 -1.324298	 0.285172	 -4.077979
