27

H	 2.491761	 2.125001	 0.788199
O	 3.281539	 1.800826	 0.397059
C	 3.493098	 0.463669	 0.766557
C	 2.541322	 -0.510694	 0.088749
H	 4.510406	 0.235110	 0.478762
H	 3.431952	 0.354504	 1.847664
C	 1.077822	 -0.339296	 0.489549
H	 2.641461	 -0.399626	 -0.986795
H	 2.865519	 -1.519334	 0.333577
C	 0.157297	 -1.355310	 -0.185125
H	 0.752682	 0.664976	 0.239101
H	 0.986410	 -0.437608	 1.569949
C	 -1.311023	 -1.277304	 0.237018
H	 0.227130	 -1.238970	 -1.263927
H	 0.525117	 -2.353642	 0.035127
C	 -2.041121	 -0.006551	 -0.194127
H	 -1.832049	 -2.133844	 -0.181789
H	 -1.379443	 -1.382273	 1.317507
C	 -3.489218	 0.042606	 0.286507
H	 -2.022185	 0.066287	 -1.279394
H	 -1.518764	 0.869305	 0.178730
C	 -4.219984	 1.311773	 -0.139038
H	 -4.022855	 -0.824300	 -0.093339
H	 -3.510372	 -0.038577	 1.370031
H	 -4.244251	 1.405725	 -1.219696
H	 -5.244345	 1.313233	 0.215630
H	 -3.732090	 2.196311	 0.257073
