17

O   -1.276010   1.052711    -0.768302
C   -1.204840   0.067374    -0.106123
C   -2.388195   -0.672128    0.458071
O   -0.067104   -0.527208    0.221609
H   -2.388023   -1.694060    0.097175
H   -3.300579   -0.174919    0.164318
H   -2.315377   -0.706351    1.539059
C   1.170111   0.034140    -0.238951
C   2.160216   -1.116334    -0.280056
C   1.601514   1.158309    0.689909
H   1.007938   0.423637    -1.233184
H   1.807955   -1.901284    -0.939611
H   3.121831   -0.769074    -0.643428
H   2.299295   -1.538094    0.709605
H   2.549052   1.572144    0.359866
H   0.868551   1.955001    0.694721
H   1.724643   0.787329    1.702441
