27

H	 0.372786	 -3.063731	 -4.270100
O	 1.311417	 -3.054546	 -4.296892
C	 1.799065	 -1.830421	 -3.814203
C	 1.658666	 -1.673376	 -2.307448
H	 2.845903	 -1.802073	 -4.084955
H	 1.312159	 -1.000761	 -4.323160
C	 0.214485	 -1.611354	 -1.815164
H	 2.174607	 -2.497936	 -1.824682
H	 2.177171	 -0.762872	 -2.016704
C	 -0.055025	 -0.399007	 -0.924987
H	 -0.017444	 -2.519477	 -1.268790
H	 -0.456973	 -1.581205	 -2.671622
C	 -1.505314	 -0.246136	 -0.462873
H	 0.595929	 -0.443118	 -0.055193
H	 0.228262	 0.497992	 -1.468687
C	 -2.507578	 0.068574	 -1.572002
H	 -1.807214	 -1.169629	 0.023486
H	 -1.558800	 0.527237	 0.300139
C	 -3.951190	 0.112938	 -1.077608
H	 -2.421149	 -0.681018	 -2.355654
H	 -2.266580	 1.021091	 -2.034208
C	 -4.954129	 0.430616	 -2.181731
H	 -4.204828	 -0.841722	 -0.624985
H	 -4.037409	 0.855439	 -0.288735
H	 -4.915169	 -0.312387	 -2.971456
H	 -5.967712	 0.451726	 -1.797920
H	 -4.750421	 1.397657	 -2.629712
