16

O	 -2.081319	 -0.951530	 -0.502732
N	 -1.613558	 0.006676	 0.014756
C	 -0.329345	 -0.171618	 0.743966
O	 -2.068523	 1.100482	 -0.024385
C	 0.835904	 0.041968	 -0.213982
H	 -0.346048	 -1.174374	 1.137184
H	 -0.333613	 0.555559	 1.538590
C	 2.177039	 -0.130175	 0.494460
H	 0.754456	 -0.665923	 -1.030569
H	 0.765464	 1.037260	 -0.637266
C	 2.350280	 0.841608	 1.656400
H	 2.983168	 0.012241	 -0.219200
H	 2.264220	 -1.149259	 0.859526
H	 2.301225	 1.870022	 1.316317
H	 1.575558	 0.701366	 2.401956
H	 3.307847	 0.697886	 2.141757
