25

O	 -4.741559	 3.677983	 3.374923
C	 -3.562142	 3.759984	 3.486103
C	 -2.630085	 2.634875	 3.084568
C	 -2.907686	 5.004973	 4.041002
C	 -2.930863	 2.021940	 1.724174
H	 -1.614819	 3.023858	 3.116108
H	 -2.673335	 1.879345	 3.865793
C	 -1.819903	 2.273963	 0.708613
H	 -3.867245	 2.422572	 1.352962
H	 -3.087880	 0.955776	 1.841531
C	 -2.109331	 1.664625	 -0.660062
H	 -1.666309	 3.345138	 0.597860
H	 -0.883503	 1.871303	 1.088457
C	 -3.449188	 2.099114	 -1.247205
H	 -2.087322	 0.580438	 -0.581529
H	 -1.312144	 1.934576	 -1.348355
C	 -4.643549	 1.432177	 -0.573049
H	 -3.545046	 3.178301	 -1.162903
H	 -3.464874	 1.874801	 -2.310387
H	 -4.675783	 1.665799	 0.485923
H	 -5.577874	 1.761947	 -1.012720
H	 -4.595160	 0.352709	 -0.670262
H	 -2.221465	 5.423139	 3.312795
H	 -3.662109	 5.735040	 4.290482
H	 -2.329392	 4.760820	 4.925313
