27

H	 2.186742	 2.718756	 -1.062098
O	 2.994434	 2.306912	 -1.306737
C	 3.410966	 1.419858	 -0.302292
C	 2.574824	 0.150937	 -0.228868
H	 4.435124	 1.165102	 -0.539315
H	 3.418706	 1.918528	 0.665033
C	 1.123113	 0.379514	 0.186025
H	 2.605640	 -0.339516	 -1.197198
H	 3.050127	 -0.521734	 0.481062
C	 0.323920	 -0.919385	 0.280836
H	 0.647222	 1.045381	 -0.526120
H	 1.099356	 0.884026	 1.150489
C	 -1.118293	 -0.757018	 0.764482
H	 0.323866	 -1.410035	 -0.689468
H	 0.839695	 -1.593024	 0.959552
C	 -2.041121	 -0.006551	 -0.194127
H	 -1.532590	 -1.746133	 0.939227
H	 -1.118369	 -0.255872	 1.729888
C	 -3.489218	 0.042606	 0.286507
H	 -2.005068	 -0.482508	 -1.171692
H	 -1.685196	 1.009273	 -0.337026
C	 -4.219984	 1.311773	 -0.139038
H	 -4.022855	 -0.824300	 -0.093339
H	 -3.510372	 -0.038577	 1.370031
H	 -4.244251	 1.405725	 -1.219696
H	 -5.244345	 1.313233	 0.215630
H	 -3.732090	 2.196311	 0.257073
