22

O	 -0.763945	 -4.552030	 -1.056825
C	 -0.233047	 -3.892884	 -1.898317
C	 0.064115	 -2.422296	 -1.663007
C	 0.197782	 -4.489306	 -3.219696
C	 1.321567	 -2.249155	 -0.795840
H	 -0.790082	 -1.991890	 -1.151731
H	 0.190256	 -1.901812	 -2.608106
C	 1.631333	 -0.777471	 -0.511575
H	 1.171582	 -2.793440	 0.129710
H	 2.175766	 -2.705257	 -1.293898
C	 2.915987	 -0.544314	 0.291766
H	 0.791251	 -0.330448	 0.016780
H	 1.713385	 -0.247164	 -1.458089
C	 3.373361	 0.914346	 0.347591
H	 3.708709	 -1.142521	 -0.150311
H	 2.780642	 -0.921148	 1.303579
H	 3.506512	 1.320010	 -0.651625
H	 4.322697	 0.999599	 0.867103
H	 2.660624	 1.545032	 0.868198
H	 -0.387532	 -4.053678	 -4.025239
H	 0.050965	 -5.560329	 -3.207930
H	 1.240357	 -4.261861	 -3.422450
