20

O	 -2.440701	 -0.934798	 -0.415053
C	 -1.922978	 0.063265	 -0.045005
C	 -2.632749	 1.372204	 0.158357
O	 -0.637375	 0.157174	 0.243149
H	 -2.187724	 2.129143	 -0.474664
H	 -3.677681	 1.257276	 -0.079438
H	 -2.516788	 1.693160	 1.185542
C	 0.162530	 -1.009518	 0.097799
C	 1.587210	 -0.664190	 0.477086
H	 0.096803	 -1.356267	 -0.924704
H	 -0.233803	 -1.785900	 0.736810
C	 1.974043	 0.786744	 0.203377
H	 2.240606	 -1.326693	 -0.084072
H	 1.737143	 -0.894918	 1.527382
C	 3.422916	 1.088539	 0.571212
H	 1.815796	 1.005102	 -0.849417
H	 1.314835	 1.445244	 0.757151
H	 3.671785	 2.122580	 0.363343
H	 4.109830	 0.463905	 0.009631
H	 3.603571	 0.911005	 1.626135
