14

H	 -2.816458	 -0.841657	 -0.064679
N	 -1.878861	 -0.711874	 0.250184
C	 -1.341419	 0.551458	 -0.220231
H	 -1.333674	 -1.468530	 -0.105118
C	 0.082190	 0.731516	 0.254705
H	 -1.357065	 0.652078	 -1.304747
H	 -1.939897	 1.357530	 0.189797
O	 0.640207	 -0.525613	 0.491244
H	 0.659958	 1.260887	 -0.501683
H	 0.090993	 1.323833	 1.166852
C	 1.932117	 -0.495915	 1.000464
H	 2.258330	 -1.516571	 1.139144
H	 2.617836	 -0.000118	 0.316599
H	 1.970531	 0.017612	 1.958262
