13

H	 0.553073	 -1.247011	 -0.764282
C	 0.581007	 -0.248881	 -1.222316
C	 0.062554	 0.862911	 -0.350953
O	 1.003646	 -0.112171	 -2.317689
C	 -1.339253	 0.577611	 0.196911
H	 0.087729	 1.784955	 -0.917252
H	 0.758358	 0.959577	 0.479461
C	 -1.813142	 -0.849710	 -0.061612
H	 -2.032833	 1.276441	 -0.256032
H	 -1.357249	 0.782269	 1.263793
H	 -1.839268	 -1.063526	 -1.124230
H	 -2.810118	 -1.001930	 0.334000
H	 -1.159274	 -1.579980	 0.402282
