25

H	 -7.680836	 0.106562	 -1.860842
C	 -6.628495	 0.064662	 -2.173423
C	 -5.646645	 -0.185959	 -1.061195
O	 -6.342278	 0.221886	 -3.309499
C	 -4.440563	 0.756644	 -1.111588
H	 -6.170272	 -0.113889	 -0.116761
H	 -5.303395	 -1.211812	 -1.175695
C	 -4.789956	 2.214817	 -0.822038
H	 -3.705994	 0.412278	 -0.391754
H	 -3.965588	 0.681449	 -2.086748
C	 -5.641798	 2.853761	 -1.915610
H	 -3.871108	 2.782485	 -0.701295
H	 -5.313652	 2.286246	 0.127734
C	 -6.900381	 3.527547	 -1.372262
H	 -5.037082	 3.575553	 -2.455684
H	 -5.927719	 2.092630	 -2.638262
C	 -7.827821	 4.111512	 -2.439380
H	 -6.614724	 4.314215	 -0.677756
H	 -7.459838	 2.800038	 -0.790848
C	 -7.244121	 5.287623	 -3.218572
H	 -8.743922	 4.435874	 -1.955707
H	 -8.114795	 3.326049	 -3.133643
H	 -6.941812	 6.086551	 -2.549005
H	 -6.377675	 4.999038	 -3.801388
H	 -7.976863	 5.694192	 -3.906144
