11

H   -1.836216   1.387520    -0.000064
C   -1.301823   0.443321    -0.000031
O   -0.003969   0.658512    0.000451
O   -1.829879   -0.616434    -0.000857
C   0.850537   -0.484732    0.000380
C   2.278695   0.015952    0.000150
H   0.633917   -1.081765    -0.874803
H   0.634167   -1.082283    0.875258
H   2.474965   0.618934    -0.879011
H   2.963662   -0.825507    -0.000348
H   2.475378   0.618444    0.879472
