23

O	 1.359807	 2.140699	 0.138705
C	 0.289885	 2.572839	 0.402446
C	 -0.997676	 1.789432	 0.392340
O	 0.082959	 3.832757	 0.749152
C	 -0.824290	 0.329213	 -0.000115
H	 -1.436855	 1.881428	 1.380322
H	 -1.678191	 2.299461	 -0.281612
C	 -2.146151	 -0.432825	 -0.000068
H	 -0.126615	 -0.143614	 0.681763
H	 -0.367984	 0.274909	 -0.982014
C	 -3.366283	 0.483552	 0.000557
H	 -2.189286	 -1.084450	 -0.869996
H	 -2.188867	 -1.085083	 0.869399
C	 -4.687436	 -0.278003	 0.000108
H	 -3.325150	 1.134819	 -0.867957
H	 -3.325087	 1.133730	 0.869885
H	 -4.773783	 -0.912098	 -0.876078
H	 -5.531922	 0.401392	 0.000363
H	 -4.773901	 -0.912898	 0.875703
C	 1.209101	 4.685123	 0.800162
H	 1.927834	 4.324607	 1.521039
H	 0.837142	 5.652226	 1.097157
H	 1.682980	 4.749180	 -0.168109
