24

H	 -3.436473	 1.252944	 -1.023892
O	 -3.458596	 0.315260	 -0.960865
C	 -3.176635	 -0.080824	 0.355601
C	 -1.763371	 0.265266	 0.799691
H	 -3.321825	 -1.153438	 0.379502
H	 -3.895468	 0.357385	 1.043382
C	 -0.673390	 -0.426948	 -0.013392
H	 -1.631049	 1.344913	 0.747560
H	 -1.664587	 -0.001624	 1.849167
C	 -0.131766	 -1.686677	 0.657203
H	 0.138749	 0.269908	 -0.188702
H	 -1.071528	 -0.682890	 -0.992415
C	 -1.235908	 -2.615229	 1.158909
H	 0.505038	 -2.214140	 -0.046468
H	 0.505063	 -1.405362	 1.493366
C	 -2.071457	 -2.057428	 2.312410
H	 -0.796999	 -3.563278	 1.461252
H	 -1.901479	 -2.841591	 0.330419
C	 -1.307661	 -1.868629	 3.620888
H	 -2.903444	 -2.731860	 2.490496
H	 -2.510125	 -1.109533	 2.011602
H	 -0.852569	 -2.799683	 3.943543
H	 -1.972938	 -1.536704	 4.409858
H	 -0.520144	 -1.130480	 3.528370
