25

H	 -3.417778	 0.328330	 -0.371893
C	 -3.037153	 0.672833	 -1.343143
C	 -2.082763	 1.833972	 -1.273953
O	 -3.391099	 0.142950	 -2.338761
C	 -0.930728	 1.596745	 -0.293028
H	 -1.720381	 2.041929	 -2.272336
H	 -2.662593	 2.692840	 -0.943125
C	 0.033419	 0.497747	 -0.734399
H	 -0.386106	 2.526895	 -0.172419
H	 -1.336130	 1.355371	 0.686554
C	 1.181757	 0.280428	 0.247371
H	 0.436052	 0.750576	 -1.711676
H	 -0.507616	 -0.435838	 -0.865279
C	 2.151032	 -0.811012	 -0.202643
H	 1.712798	 1.217794	 0.380360
H	 0.775757	 0.018007	 1.221844
C	 3.580021	 -0.656538	 0.320835
H	 2.170545	 -0.847575	 -1.289412
H	 1.766632	 -1.772905	 0.124928
C	 4.327657	 0.562694	 -0.213579
H	 4.138806	 -1.549270	 0.057813
H	 3.561991	 -0.620783	 1.406976
H	 4.355973	 0.557257	 -1.298551
H	 3.867136	 1.491650	 0.100501
H	 5.351524	 0.571613	 0.142204
