20

O	 -2.439739	 -0.935931	 -0.423848
C	 -1.921153	 0.064240	 -0.045697
C	 -2.624470	 1.379923	 0.150949
O	 -0.632575	 0.154573	 0.251549
H	 -2.168117	 2.136577	 -0.476876
H	 -3.669540	 1.273223	 -0.098610
H	 -2.519365	 1.700893	 1.180846
C	 0.160891	 -1.019931	 0.106212
C	 1.589627	 -0.672828	 0.480843
H	 0.089836	 -1.367806	 -0.916050
H	 -0.238459	 -1.792301	 0.749618
C	 1.910807	 -0.878572	 1.962367
H	 1.753777	 0.368900	 0.212907
H	 2.266426	 -1.263670	 -0.130801
C	 3.348522	 -0.494371	 2.309304
H	 1.223268	 -0.287035	 2.563595
H	 1.738024	 -1.916774	 2.226264
H	 3.551581	 -0.650018	 3.364090
H	 3.541773	 0.551149	 2.086099
H	 4.060385	 -1.089570	 1.744445
