29

O	 3.225979	 0.970355	 -0.599647
C	 2.701189	 0.057885	 -0.047330
C	 1.245376	 -0.013843	 0.345420
O	 3.347903	 -1.046386	 0.304773
C	 0.455112	 1.231400	 -0.050772
H	 0.838542	 -0.913825	 -0.103701
H	 1.208210	 -0.175333	 1.419774
C	 -0.998893	 1.219485	 0.433193
H	 0.482531	 1.345121	 -1.130325
H	 0.957290	 2.103070	 0.354729
C	 -1.174103	 1.063775	 1.946522
H	 -1.512013	 0.398484	 -0.062177
H	 -1.498165	 2.129502	 0.103639
C	 -2.640655	 0.947069	 2.366765
H	 -0.633105	 0.179552	 2.280123
H	 -0.726733	 1.909111	 2.464441
C	 -2.828116	 0.796294	 3.877479
H	 -3.092610	 0.094560	 1.862583
H	 -3.184476	 1.826011	 2.024100
C	 -4.295245	 0.676529	 4.288441
H	 -2.284501	 -0.080984	 4.221728
H	 -2.380826	 1.649657	 4.382932
H	 -4.395466	 0.571061	 5.364284
H	 -4.762380	 -0.188660	 3.826459
H	 -4.859476	 1.555076	 3.988319
C	 4.728119	 -1.109107	 -0.004993
H	 4.882018	 -1.033965	 -1.071845
H	 5.068212	 -2.067527	 0.355250
H	 5.265056	 -0.311663	 0.488280
