12

H	 -1.515444	 -0.248312	 0.150114
N	 -0.626943	 -0.667432	 -0.000092
C	 -0.571806	 -2.096371	 -0.209400
C	 0.469286	 0.129090	 0.000148
H	 -0.967319	 -2.630131	 0.648316
H	 0.459284	 -2.376608	 -0.350990
H	 -1.138513	 -2.382718	 -1.089105
C	 1.788933	 -0.616240	 -0.000037
O	 0.411098	 1.327768	 -0.000049
H	 1.872803	 -1.245775	 -0.880381
H	 2.595421	 0.101576	 0.003713
H	 1.870096	 -1.252171	 0.875943
