13

H	 -3.011737	 -2.168597	 2.597898
C	 -2.757124	 -1.502185	 1.799540
C	 -1.578558	 -1.594058	 1.233954
H	 -3.478318	 -0.775038	 1.481837
O	 -1.189946	 -0.765863	 0.237511
H	 -0.851450	 -2.324506	 1.538727
C	 0.026572	 -0.995256	 -0.379403
C	 1.057223	 0.049888	 -0.004615
H	 -0.054361	 -1.010670	 -1.459674
H	 0.397526	 -1.952058	 -0.044198
F	 2.203233	 -0.234060	 -0.590375
F	 0.698147	 1.254887	 -0.392621
F	 1.266440	 0.094219	 1.288722
