14

O	 -0.694481	 1.313155	 -0.204815
C	 -0.862519	 0.151932	 -0.046791
C	 -2.171428	 -0.477048	 0.339095
O	 0.085519	 -0.757083	 -0.192238
H	 -2.467997	 -1.191667	 -0.417688
H	 -2.923379	 0.287970	 0.444097
H	 -2.053854	 -1.015120	 1.270901
C	 1.392036	 -0.330828	 -0.560749
C	 1.723016	 1.027476	 0.021797
H	 1.473072	 -0.322817	 -1.636474
H	 2.049480	 -1.089936	 -0.164171
H	 2.746382	 1.288249	 -0.223498
H	 1.071861	 1.790430	 -0.382284
H	 1.623914	 1.015639	 1.100515
