27

H	 2.614283	 2.028610	 0.296620
O	 3.358864	 1.662087	 -0.142800
C	 3.565468	 0.338079	 0.273842
C	 2.533667	 -0.637565	 -0.272227
H	 4.548038	 0.064914	 -0.086598
H	 3.593945	 0.282242	 1.360360
C	 1.153248	 -0.514671	 0.369015
H	 2.453053	 -0.490434	 -1.345079
H	 2.912866	 -1.645146	 -0.119297
C	 0.153572	 -1.531266	 -0.180547
H	 0.772275	 0.488699	 0.210547
H	 1.243026	 -0.648995	 1.445668
C	 -1.226311	 -1.502477	 0.479262
H	 0.042436	 -1.379507	 -1.251456
H	 0.571543	 -2.526710	 -0.058644
C	 -2.041467	 -0.237084	 0.218413
H	 -1.792881	 -2.357966	 0.121961
H	 -1.113718	 -1.642892	 1.551998
C	 -3.445965	 -0.298071	 0.813457
H	 -2.114805	 -0.073525	 -0.854591
H	 -1.527038	 0.628996	 0.623715
C	 -4.261261	 0.965245	 0.558084
H	 -3.972572	 -1.155208	 0.402873
H	 -3.374633	 -0.469900	 1.884181
H	 -4.378116	 1.147350	 -0.505128
H	 -5.252192	 0.887726	 0.990696
H	 -3.779598	 1.836371	 0.989933
