16

H	 -0.216810	 0.021365	 -3.357402
C	 0.374214	 0.036389	 -2.447010
C	 -0.521742	 -0.028641	 -1.217342
H	 0.969617	 0.942318	 -2.434777
H	 1.053379	 -0.811672	 -2.481329
N	 0.263415	 0.031174	 -0.000000
H	 -1.199020	 0.820286	 -1.219355
H	 -1.147886	 -0.924899	 -1.265384
C	 -0.521742	 -0.028641	 1.217342
H	 0.935784	 -0.712713	 -0.000000
C	 0.374214	 0.036389	 2.447010
H	 -1.199020	 0.820286	 1.219355
H	 -1.147886	 -0.924899	 1.265384
H	 0.969617	 0.942318	 2.434777
H	 -0.216810	 0.021365	 3.357402
H	 1.053379	 -0.811672	 2.481329
