27

H	 0.540033	 1.990959	 3.699780
O	 1.482564	 1.930423	 3.754939
C	 1.866863	 0.581061	 3.829719
C	 1.708732	 -0.163115	 2.508386
H	 2.908767	 0.587614	 4.123092
H	 1.312889	 0.070111	 4.616372
C	 0.260571	 -0.271827	 2.024773
H	 2.308287	 0.340939	 1.754841
H	 2.125434	 -1.161624	 2.629654
C	 0.129634	 -1.070488	 0.724844
H	 -0.143299	 0.726265	 1.879634
H	 -0.344660	 -0.745827	 2.797663
C	 -1.309753	 -1.282496	 0.241564
H	 0.702986	 -0.576971	 -0.057815
H	 0.591252	 -2.045017	 0.869423
C	 -2.037799	 -0.007733	 -0.193645
H	 -1.289906	 -1.974169	 -0.598085
H	 -1.882995	 -1.775684	 1.025144
C	 -3.489788	 0.042957	 0.286558
H	 -2.017067	 0.064384	 -1.280144
H	 -1.513726	 0.868678	 0.179924
C	 -4.216917	 1.317354	 -0.141063
H	 -4.025645	 -0.823308	 -0.095450
H	 -3.513059	 -0.038752	 1.371301
H	 -4.239342	 1.411634	 -1.223113
H	 -5.243387	 1.322503	 0.212445
H	 -3.726170	 2.201406	 0.256408
