22

O	 -2.374409	 1.338660	 -0.336961
C	 -2.104891	 0.204655	 -0.107126
C	 -0.881910	 -0.448129	 -0.720509
C	 -2.949910	 -0.638219	 0.818225
C	 -1.184018	 -1.889459	 -1.149625
H	 -0.100217	 -0.448413	 0.028536
H	 -0.536899	 0.126143	 -1.573764
C	 0.034225	 -2.580479	 -1.758625
H	 -1.535955	 -2.435027	 -0.283182
H	 -1.995400	 -1.893954	 -1.873462
C	 -0.225034	 -4.002810	 -2.258290
H	 0.837296	 -2.598463	 -1.026005
H	 0.395104	 -1.982243	 -2.590781
C	 -0.555545	 -5.013058	 -1.162369
H	 0.657645	 -4.342895	 -2.790763
H	 -1.029976	 -3.985342	 -2.988424
H	 0.230350	 -5.047218	 -0.414845
H	 -0.658587	 -6.008830	 -1.577810
H	 -1.482899	 -4.774989	 -0.655796
H	 -3.440322	 -1.417144	 0.243099
H	 -3.694377	 -0.025850	 1.303346
H	 -2.331085	 -1.129829	 1.560495
