20

O	 1.216069	 1.304886	 0.000821
C	 1.121787	 0.124983	 0.000110
C	 -0.170912	 -0.649867	 -0.000147
O	 2.167739	 -0.685178	 -0.000678
C	 -1.413045	 0.229353	 0.001137
H	 -0.152877	 -1.303435	 -0.866175
H	 -0.152278	 -1.305116	 0.864586
C	 -1.935340	 0.499559	 -1.406878
H	 -1.187207	 1.167565	 0.495398
H	 -2.186536	 -0.244309	 0.595191
C	 -3.178917	 1.381771	 -1.417387
H	 -1.154865	 0.971134	 -1.998245
H	 -2.159708	 -0.444131	 -1.897128
H	 -2.977164	 2.346570	 -0.964569
H	 -3.526979	 1.556740	 -2.428780
H	 -3.989331	 0.921015	 -0.862849
C	 3.449556	 -0.089977	 -0.000570
H	 3.585694	 0.522473	 -0.879546
H	 4.155805	 -0.904274	 -0.001389
H	 3.586173	 0.521118	 0.879272
