14

O   -0.694481   1.313155    -0.204815
C   -0.862519   0.151932    -0.046791
C   -2.171428   -0.477048    0.339095
O   0.085519   -0.757083    -0.192238
H   -2.467997   -1.191667    -0.417688
H   -2.923379   0.287970    0.444097
H   -2.053854   -1.015120    1.270901
C   1.392036   -0.330828    -0.560749
C   2.205727   0.087701    0.646164
H   1.315072   0.473356    -1.275718
H   1.833953   -1.189545    -1.043518
H   3.212860   0.341257    0.334966
H   1.769823   0.953941    1.124702
H   2.264958   -0.719447    1.366301
