23

O	 -2.817697	 1.304178	 0.001046
C	 -2.664672	 0.129869	 0.003507
C	 -3.797908	 -0.860100	 -0.001145
O	 -1.481217	 -0.452708	 0.001092
H	 -4.408836	 -0.679689	 -0.875387
H	 -3.443486	 -1.878443	 -0.002770
H	 -4.412123	 -0.683688	 0.871605
C	 -0.332055	 0.384012	 -0.000250
C	 0.892252	 -0.506059	 -0.000295
H	 -0.360822	 1.020205	 -0.874146
H	 -0.359817	 1.021310	 0.872861
C	 2.188199	 0.299473	 -0.001416
H	 0.857046	 -1.152781	 -0.871031
H	 0.857910	 -1.151798	 0.871202
C	 3.437151	 -0.577593	 -0.000991
H	 2.209565	 0.950707	 -0.871712
H	 2.210062	 0.952234	 0.867721
C	 4.707904	 0.192267	 0.341808
H	 3.548854	 -1.041869	 -0.976710
H	 3.304468	 -1.389021	 0.708986
H	 4.886632	 0.990047	 -0.371247
H	 5.574612	 -0.458314	 0.333660
H	 4.640214	 0.640482	 1.327392
