13

O   0.391030   1.298905    0.000133
C   0.503002   0.111612    0.000005
C   -0.702327   -0.811998    -0.000075
C   1.863306   -0.554493    0.000030
C   -2.036186   -0.075132    -0.000119
H   -0.621670   -1.466162    -0.866294
H   -0.621754   -1.466218    0.866106
H   -2.129753   0.557978    -0.873982
H   -2.858711   -0.782740    -0.000183
H   -2.129839   0.557920    0.873777
H   1.974395   -1.189404    -0.874166
H   2.638695   0.198920    -0.000196
H   1.974487   -1.188655    0.874727
