25

H	 -7.987225	 0.406959	 -1.446665
C	 -6.975576	 0.202058	 -1.822786
C	 -5.946684	 -0.068342	 -0.758758
O	 -6.762834	 0.215766	 -2.985481
C	 -4.643262	 0.703466	 -0.984765
H	 -6.381734	 0.157051	 0.206262
H	 -5.740029	 -1.135838	 -0.791188
C	 -4.789956	 2.214817	 -0.822038
H	 -3.901300	 0.335899	 -0.284246
H	 -4.259152	 0.478375	 -1.976726
C	 -5.641798	 2.853761	 -1.915610
H	 -3.802600	 2.668947	 -0.820997
H	 -5.224732	 2.440079	 0.148350
C	 -6.900381	 3.527547	 -1.372262
H	 -5.037082	 3.575553	 -2.455684
H	 -5.927719	 2.092630	 -2.638262
C	 -7.827821	 4.111512	 -2.439380
H	 -6.614724	 4.314215	 -0.677756
H	 -7.459838	 2.800038	 -0.790848
C	 -7.244121	 5.287623	 -3.218572
H	 -8.743922	 4.435874	 -1.955707
H	 -8.114795	 3.326049	 -3.133643
H	 -6.941812	 6.086551	 -2.549005
H	 -6.377675	 4.999038	 -3.801388
H	 -7.976863	 5.694192	 -3.906144
