13

H	 -2.470391	 1.440332	 2.323459
C	 -2.407034	 0.554794	 1.725030
C	 -1.320516	 0.322482	 1.030152
H	 -3.238431	 -0.122267	 1.712154
O	 -1.189946	 -0.765863	 0.237511
H	 -0.478180	 0.989902	 1.042365
C	 0.026572	 -0.995256	 -0.379403
C	 1.057223	 0.049888	 -0.004615
H	 -0.054361	 -1.010670	 -1.459674
H	 0.397526	 -1.952058	 -0.044198
F	 2.203233	 -0.234060	 -0.590375
F	 0.698147	 1.254887	 -0.392621
F	 1.266440	 0.094219	 1.288722
