19

H	 3.893188	 0.355400	 -0.101367
N	 3.092854	 -0.246221	 -0.068770
C	 1.865559	 0.531981	 0.018834
H	 3.199514	 -0.826043	 0.741946
C	 0.645745	 -0.382037	 -0.029944
H	 1.841966	 1.207024	 -0.831236
H	 1.815756	 1.155410	 0.915079
C	 -0.679275	 0.379305	 0.025956
H	 0.698998	 -0.976915	 -0.937203
H	 0.693479	 -1.083846	 0.802235
C	 -0.896287	 1.300341	 -1.176114
H	 -0.717581	 0.970152	 0.939894
H	 -1.504276	 -0.328872	 0.086828
C	 -2.219648	 2.062164	 -1.114061
H	 -0.073909	 2.009606	 -1.238189
H	 -0.861130	 0.712274	 -2.090771
H	 -2.271225	 2.686705	 -0.226590
H	 -2.344071	 2.706372	 -1.979000
H	 -3.064380	 1.379499	 -1.085990
