23

O	 1.847685	 1.294399	 -0.000190
C	 1.704209	 0.119472	 -0.000093
C	 0.380337	 -0.600947	 -0.000234
O	 2.715427	 -0.733672	 0.000025
C	 -0.824290	 0.329213	 -0.000115
H	 0.371455	 -1.255476	 -0.865660
H	 0.371410	 -1.255787	 0.864952
C	 -0.563521	 1.616899	 -0.775927
H	 -1.094254	 0.564080	 1.023228
H	 -1.676517	 -0.189838	 -0.423891
C	 -1.760959	 2.562668	 -0.787439
H	 0.293827	 2.131301	 -0.347449
H	 -0.290199	 1.374177	 -1.800436
C	 -1.500230	 3.849869	 -1.562389
H	 -2.034220	 2.806529	 0.235311
H	 -2.617431	 2.050465	 -1.216697
H	 -0.669929	 4.402734	 -1.135570
H	 -2.369027	 4.497778	 -1.550556
H	 -1.258140	 3.640722	 -2.599155
C	 4.020999	 -0.192556	 0.000019
H	 4.182809	 0.412891	 -0.879449
H	 4.692590	 -1.035653	 0.000152
H	 4.182726	 0.413087	 0.879368
