16

O	 -1.510770	 1.240811	 -0.054933
C	 -1.081510	 0.147522	 0.122720
C	 0.327029	 -0.064006	 0.641890
C	 -1.903028	 -1.084121	 -0.174656
C	 1.349460	 -0.017068	 -0.500215
H	 0.399029	 -1.014606	 1.159950
H	 0.538021	 0.726928	 1.350471
C	 1.005232	 1.036627	 -1.546628
H	 2.338537	 0.184051	 -0.098825
H	 1.395196	 -0.995316	 -0.964184
H	 1.735952	 1.041081	 -2.346664
H	 0.983187	 2.030256	 -1.111924
H	 0.032609	 0.845501	 -1.986338
H	 -1.341891	 -1.779207	 -0.789259
H	 -2.820449	 -0.808163	 -0.671328
H	 -2.133314	 -1.593056	 0.755831
