16

O	 -1.510770	 1.240811	 -0.054933
C	 -1.081510	 0.147522	 0.122720
C	 0.327029	 -0.064006	 0.641890
C	 -1.903028	 -1.084121	 -0.174656
C	 1.349460	 -0.017068	 -0.500215
H	 0.399029	 -1.014606	 1.159950
H	 0.538021	 0.726928	 1.350471
C	 2.747988	 -0.419367	 -0.046322
H	 1.030032	 -0.672394	 -1.305418
H	 1.369026	 0.987513	 -0.906122
H	 3.451995	 -0.366771	 -0.868294
H	 2.760532	 -1.434162	 0.336804
H	 3.105831	 0.236225	 0.739820
H	 -1.341891	 -1.779207	 -0.789259
H	 -2.820449	 -0.808163	 -0.671328
H	 -2.133314	 -1.593056	 0.755831
