16

O	 -2.081319	 -0.951530	 -0.502732
N	 -1.613558	 0.006676	 0.014756
C	 -0.329345	 -0.171618	 0.743966
O	 -2.068523	 1.100482	 -0.024385
C	 -0.612728	 -0.529054	 2.197589
H	 0.195967	 0.764792	 0.656770
H	 0.197555	 -0.959757	 0.232649
C	 0.680572	 -0.723363	 2.984853
H	 -1.204163	 0.261028	 2.645399
H	 -1.204814	 -1.436391	 2.227778
C	 0.424970	 -1.089362	 4.442657
H	 1.271377	 0.186731	 2.938842
H	 1.275234	 -1.501636	 2.515730
H	 -0.139585	 -0.313204	 4.947190
H	 -0.137682	 -2.012958	 4.520817
H	 1.357347	 -1.222498	 4.977549
