10

H	 1.481992	 1.068018	 -1.990039
O	 0.626740	 0.897947	 -1.641806
C	 0.700177	 0.619554	 -0.266242
C	 -0.713111	 0.588314	 0.266177
H	 1.265516	 1.389054	 0.250659
H	 1.177943	 -0.340573	 -0.089398
O	 -1.421673	 -0.521378	 -0.196983
H	 -1.244794	 1.469161	 -0.069059
H	 -0.685100	 0.604721	 1.352683
H	 -0.933408	 -1.297830	 0.014544
