12

H	 -2.644180	 -0.653737	 1.272255
C	 -2.092774	 -0.380414	 0.391915
O	 -0.808934	 -0.154049	 0.752536
F	 -2.163230	 -1.351640	 -0.507133
F	 -2.627232	 0.691260	 -0.169301
C	 -0.563075	 0.673312	 1.826932
C	 -1.419898	 0.179136	 2.990084
Cl	 -0.967411	 2.357494	 1.445380
H	 0.466845	 0.652677	 2.137555
F	 -1.220960	 0.917976	 4.051951
F	 -1.072894	 -1.051684	 3.283313
F	 -2.693216	 0.188644	 2.705793
