14

O	 -0.694481	 1.313155	 -0.204815
C	 -0.862519	 0.151932	 -0.046791
C	 -2.171428	 -0.477048	 0.339095
O	 0.085519	 -0.757083	 -0.192238
H	 -2.467997	 -1.191667	 -0.417688
H	 -2.923379	 0.287970	 0.444097
H	 -2.053854	 -1.015120	 1.270901
C	 0.276399	 -1.348525	 -1.472176
C	 1.177592	 -0.505175	 -2.349963
H	 -0.683924	 -1.505493	 -1.937961
H	 0.728148	 -2.307237	 -1.265910
H	 1.353491	 -1.018113	 -3.288795
H	 0.721822	 0.451437	 -2.565718
H	 2.133724	 -0.338712	 -1.868614
