23

O	 1.816773	 1.332945	 -0.963344
C	 0.781622	 1.719742	 -1.387478
C	 -0.518669	 0.958420	 -1.351787
O	 0.630629	 2.901797	 -1.962250
C	 -0.824290	 0.329213	 -0.000115
H	 -1.301960	 1.647247	 -1.650821
H	 -0.472151	 0.207303	 -2.133516
C	 -0.194691	 -1.052171	 0.152861
H	 -1.898683	 0.260390	 0.127232
H	 -0.469966	 0.984636	 0.787391
C	 -0.907632	 -2.129139	 -0.659742
H	 0.849717	 -1.010223	 -0.148306
H	 -0.196027	 -1.337252	 1.202607
C	 -0.278131	 -3.509681	 -0.507277
H	 -0.906052	 -1.845902	 -1.708518
H	 -1.950493	 -2.173041	 -0.358622
H	 0.756725	 -3.506519	 -0.833307
H	 -0.807528	 -4.249521	 -1.096437
H	 -0.296327	 -3.836422	 0.527200
C	 1.774850	 3.725117	 -2.063383
H	 2.168391	 3.953019	 -1.083894
H	 1.449161	 4.628457	 -2.553025
H	 2.542901	 3.240436	 -2.647673
