27

H	 2.614283	 2.028610	 0.296620
O	 3.358864	 1.662087	 -0.142800
C	 3.565468	 0.338079	 0.273842
C	 4.408130	 -0.478079	 -0.694916
H	 4.072154	 0.404084	 1.227201
H	 2.612586	 -0.157633	 0.449160
C	 3.751367	 -0.712944	 -2.053352
H	 5.361239	 0.024051	 -0.831326
H	 4.620288	 -1.436655	 -0.227457
C	 4.611906	 -1.563154	 -2.986868
H	 3.545852	 0.243461	 -2.522455
H	 2.790309	 -1.203595	 -1.908725
C	 3.970614	 -1.892246	 -4.336200
H	 5.561289	 -1.060189	 -3.153975
H	 4.849262	 -2.496069	 -2.483081
C	 3.765431	 -0.695734	 -5.263562
H	 4.598825	 -2.618917	 -4.843967
H	 3.015570	 -2.385122	 -4.168510
C	 3.215945	 -1.088414	 -6.632605
H	 4.713014	 -0.177548	 -5.394098
H	 3.088053	 0.019369	 -4.806626
C	 3.006355	 0.104248	 -7.559709
H	 3.895034	 -1.794457	 -7.102625
H	 2.273368	 -1.613710	 -6.503473
H	 3.937876	 0.632338	 -7.734713
H	 2.618736	 -0.209431	 -8.522239
H	 2.302032	 0.811831	 -7.134730
