24

H	 -3.436473	 1.252944	 -1.023892
O	 -3.458596	 0.315260	 -0.960865
C	 -3.176635	 -0.080824	 0.355601
C	 -1.763371	 0.265266	 0.799691
H	 -3.321825	 -1.153438	 0.379502
H	 -3.895468	 0.357385	 1.043382
C	 -0.673390	 -0.426948	 -0.013392
H	 -1.631049	 1.344913	 0.747560
H	 -1.664587	 -0.001624	 1.849167
C	 0.737842	 -0.043159	 0.423759
H	 -0.806103	 -0.190518	 -1.063345
H	 -0.797221	 -1.503753	 0.074146
C	 1.759328	 -0.144709	 -0.707303
H	 0.721332	 0.968054	 0.818811
H	 1.049157	 -0.686225	 1.244372
C	 2.029491	 -1.565634	 -1.205130
H	 2.695732	 0.305581	 -0.385999
H	 1.409393	 0.452299	 -1.545007
C	 2.709572	 -2.479649	 -0.188661
H	 2.654794	 -1.505544	 -2.090659
H	 1.094168	 -2.016935	 -1.525939
H	 3.645606	 -2.050902	 0.154984
H	 2.931672	 -3.445385	 -0.628283
H	 2.087120	 -2.654145	 0.680655
