14

O	 -0.694481	 1.313155	 -0.204815
C	 -0.862519	 0.151932	 -0.046791
C	 -2.171428	 -0.477048	 0.339095
O	 0.085519	 -0.757083	 -0.192238
H	 -2.467997	 -1.191667	 -0.417688
H	 -2.923379	 0.287970	 0.444097
H	 -2.053854	 -1.015120	 1.270901
C	 1.392072	 -0.330814	 -0.560604
C	 2.205669	 0.087600	 0.646413
H	 1.315178	 0.473433	 -1.275510
H	 1.834017	 -1.189495	 -1.043410
H	 3.212831	 0.341170	 0.335320
H	 1.769736	 0.953805	 1.124989
H	 2.264829	 -0.719611	 1.366485
