17

O	 -1.278239	 1.034789	 -0.784693
C	 -1.204115	 0.062668	 -0.112312
C	 -2.386398	 -0.667698	 0.460323
O	 -0.068058	 -0.518372	 0.226882
H	 -2.382952	 -1.693172	 0.114333
H	 -3.296656	 -0.175702	 0.158400
H	 -2.312537	 -0.685191	 1.540100
C	 1.169086	 0.037484	 -0.230612
C	 1.696248	 -0.913090	 -1.286842
C	 2.120284	 0.211345	 0.939688
H	 0.957326	 1.000105	 -0.670620
H	 0.987789	 -1.013455	 -2.099099
H	 2.629304	 -0.538673	 -1.690489
H	 1.874605	 -1.895102	 -0.865207
H	 3.061987	 0.620768	 0.593178
H	 1.706804	 0.889357	 1.673161
H	 2.316962	 -0.743239	 1.414420
