25

H	 -1.612513	 -2.230803	 -2.477933
C	 -2.317432	 -1.593301	 -1.926965
C	 -2.173079	 -1.635667	 -0.429881
O	 -3.116665	 -0.950238	 -2.514335
C	 -0.735737	 -1.382461	 0.034455
H	 -2.863603	 -0.923553	 0.003021
H	 -2.479565	 -2.631308	 -0.116719
C	 -0.247837	 0.040196	 -0.230469
H	 -0.676851	 -1.591643	 1.097053
H	 -0.070574	 -2.093018	 -0.450170
C	 1.181757	 0.280428	 0.247371
H	 -0.916316	 0.741807	 0.261450
H	 -0.312049	 0.259466	 -1.293119
C	 2.151032	 -0.811012	 -0.202643
H	 1.515939	 1.247397	 -0.115449
H	 1.191514	 0.341223	 1.333422
C	 3.580021	 -0.656538	 0.320835
H	 2.170545	 -0.847575	 -1.289412
H	 1.766632	 -1.772905	 0.124928
C	 4.327657	 0.562694	 -0.213579
H	 4.138806	 -1.549270	 0.057813
H	 3.561991	 -0.620783	 1.406976
H	 4.355973	 0.557257	 -1.298551
H	 3.867136	 1.491650	 0.100501
H	 5.351524	 0.571613	 0.142204
