25

O	 2.362532	 2.135675	 -0.110304
C	 1.284445	 2.573553	 -0.347158
C	 0.038873	 1.710852	 -0.335778
C	 1.082952	 4.034976	 -0.678622
C	 0.288398	 0.247429	 0.000314
H	 -0.660187	 2.154555	 0.369566
H	 -0.435011	 1.807196	 -1.310026
C	 -0.993089	 -0.581367	 -0.000217
H	 0.768932	 0.182290	 0.969828
H	 0.994440	 -0.165322	 -0.711217
C	 -2.258482	 0.271340	 0.000669
H	 -1.002280	 -1.233920	 -0.870484
H	 -1.002061	 -1.235367	 0.868958
C	 -3.544441	 -0.550271	 -0.000253
H	 -2.250545	 0.925250	 -0.867923
H	 -2.250598	 0.923423	 0.870642
C	 -4.804551	 0.308747	 0.000556
H	 -3.553737	 -1.201524	 -0.870151
H	 -3.553831	 -1.203282	 0.868313
H	 -4.842050	 0.949078	 -0.874436
H	 -5.698404	 -0.304480	 -0.000254
H	 -4.842277	 0.947103	 0.876982
H	 0.403786	 4.489993	 0.033938
H	 2.031167	 4.549555	 -0.656494
H	 0.634997	 4.137167	 -1.660933
