22

O	 -0.819961	 2.102334	 -3.001681
C	 -1.121426	 1.503544	 -2.020865
C	 -0.415138	 0.216723	 -1.642318
C	 -2.205134	 1.998379	 -1.092704
C	 0.886461	 0.505642	 -0.883892
H	 -0.191447	 -0.315873	 -2.557968
H	 -1.065206	 -0.404968	 -1.035872
C	 1.630207	 -0.772146	 -0.501001
H	 1.509599	 1.135259	 -1.506394
H	 0.667430	 1.074177	 0.016715
C	 2.907848	 -0.545876	 0.309149
H	 1.871497	 -1.328327	 -1.403454
H	 0.962162	 -1.405012	 0.076754
C	 3.373802	 0.906639	 0.372125
H	 3.699140	 -1.146831	 -0.127906
H	 2.764321	 -0.923458	 1.318191
H	 3.519798	 1.311927	 -0.623875
H	 4.316899	 0.983758	 0.900700
H	 2.661122	 1.540651	 0.885346
H	 -3.050089	 1.318569	 -1.136383
H	 -2.522930	 2.987209	 -1.385605
H	 -1.855211	 2.008615	 -0.066527
