20

O	 -2.440701	 -0.934798	 -0.415053
C	 -1.922978	 0.063265	 -0.045005
C	 -2.632749	 1.372204	 0.158357
O	 -0.637375	 0.157174	 0.243149
H	 -2.187724	 2.129143	 -0.474664
H	 -3.677681	 1.257276	 -0.079438
H	 -2.516788	 1.693160	 1.185542
C	 0.162530	 -1.009518	 0.097799
C	 1.587210	 -0.664190	 0.477086
H	 0.096803	 -1.356267	 -0.924704
H	 -0.233803	 -1.785900	 0.736810
C	 2.646503	 -1.482345	 -0.256592
H	 1.683641	 -0.821387	 1.547939
H	 1.750876	 0.394710	 0.301634
C	 4.065970	 -1.126420	 0.172415
H	 2.468899	 -2.539146	 -0.075687
H	 2.541951	 -1.330717	 -1.324732
H	 4.796701	 -1.723842	 -0.360037
H	 4.210488	 -1.296463	 1.234296
H	 4.284452	 -0.082578	 -0.026773
