27

H	 0.372786	 -3.063731	 -4.270100
O	 1.311417	 -3.054546	 -4.296892
C	 1.799065	 -1.830421	 -3.814203
C	 1.658666	 -1.673376	 -2.307448
H	 2.845903	 -1.802073	 -4.084955
H	 1.312159	 -1.000761	 -4.323160
C	 2.128463	 -2.884110	 -1.504165
H	 2.213094	 -0.792152	 -1.998884
H	 0.611319	 -1.480437	 -2.087820
C	 1.235613	 -4.108071	 -1.703095
H	 2.158266	 -2.625984	 -0.450843
H	 3.147445	 -3.135166	 -1.793876
C	 1.701674	 -5.372571	 -0.979160
H	 0.223456	 -3.866540	 -1.387773
H	 1.177117	 -4.323251	 -2.766460
C	 3.009841	 -5.968591	 -1.496077
H	 1.822121	 -5.137190	 0.074697
H	 0.918106	 -6.125172	 -1.031760
C	 3.483501	 -7.168232	 -0.679428
H	 3.781425	 -5.201776	 -1.485084
H	 2.898094	 -6.272898	 -2.532375
C	 4.787405	 -7.768073	 -1.195101
H	 3.610487	 -6.868801	 0.357294
H	 2.710250	 -7.931867	 -0.682378
H	 5.589371	 -7.037552	 -1.174452
H	 5.096164	 -8.614511	 -0.592342
H	 4.682460	 -8.112344	 -2.218729
