13

H	 -1.208110	 -2.144060	 -0.982231
N	 -0.498863	 -1.447291	 -1.066221
C	 -0.561396	 -0.500007	 0.035200
H	 -0.640327	 -0.986726	 -1.940980
C	 0.575129	 0.507849	 -0.048832
H	 -0.473567	 -1.060000	 0.960356
H	 -1.511009	 0.035162	 0.082573
C	 1.951750	 -0.141983	 0.035101
H	 0.478254	 1.061643	 -0.975981
H	 0.467676	 1.231891	 0.755499
H	 2.101550	 -0.848142	 -0.774949
H	 2.738260	 0.600794	 -0.026526
H	 2.078939	 -0.679792	 0.968824
