25

H	 -2.181295	 -2.836322	 -0.471837
C	 -2.677567	 -1.883965	 -0.703389
C	 -2.575632	 -0.838114	 0.373503
O	 -3.244372	 -1.747101	 -1.731644
C	 -1.134621	 -0.600804	 0.834856
H	 -3.034449	 0.073381	 0.012950
H	 -3.164831	 -1.199349	 1.213538
C	 -0.247837	 0.040196	 -0.230469
H	 -1.156317	 0.032959	 1.714750
H	 -0.698779	 -1.544557	 1.153547
C	 1.181757	 0.280428	 0.247371
H	 -0.689582	 0.984103	 -0.538702
H	 -0.228283	 -0.586034	 -1.118658
C	 2.151032	 -0.811012	 -0.202643
H	 1.515939	 1.247397	 -0.115449
H	 1.191514	 0.341223	 1.333422
C	 3.580021	 -0.656538	 0.320835
H	 2.170545	 -0.847575	 -1.289412
H	 1.766632	 -1.772905	 0.124928
C	 4.327657	 0.562694	 -0.213579
H	 4.138806	 -1.549270	 0.057813
H	 3.561991	 -0.620783	 1.406976
H	 4.355973	 0.557257	 -1.298551
H	 3.867136	 1.491650	 0.100501
H	 5.351524	 0.571613	 0.142204
