9

H	 1.915051	 0.586888	 0.580201
C	 1.068778	 0.646375	 -0.088374
O	 -0.000000	 0.000000	 0.518769
H	 0.845269	 1.694218	 -0.277908
H	 1.334807	 0.175829	 -1.032657
C	 -1.165153	 0.000000	 -0.236961
H	 -1.229451	 0.882440	 -0.870223
H	 -2.002557	 0.000000	 0.445289
H	 -1.229451	 -0.882440	 -0.870223
