20

O	 -0.406316	 0.104456	 2.438929
C	 -0.846966	 0.612872	 1.465048
C	 -1.705041	 1.846597	 1.455975
O	 -0.637375	 0.157174	 0.243149
H	 -2.660144	 1.621661	 0.998917
H	 -1.849763	 2.193395	 2.466135
H	 -1.229463	 2.616125	 0.861651
C	 0.162530	 -1.009518	 0.097799
C	 1.587210	 -0.664190	 0.477086
H	 0.096803	 -1.356267	 -0.924704
H	 -0.233803	 -1.785900	 0.736810
C	 2.378916	 -1.829457	 1.064552
H	 1.541831	 0.145692	 1.200114
H	 2.098774	 -0.273120	 -0.397103
C	 3.798157	 -1.436050	 1.460284
H	 1.854460	 -2.213295	 1.935594
H	 2.414618	 -2.639089	 0.344785
H	 4.335687	 -2.279476	 1.877513
H	 3.794656	 -0.645764	 2.203808
H	 4.358401	 -1.078930	 0.602607
