15

H	 -3.161837	 0.500524	 -0.000234
C	 -2.367097	 -0.232926	 -0.000000
O	 -1.158440	 0.455814	 -0.000122
H	 -2.468853	 -0.861886	 -0.882833
H	 -2.468942	 -0.861421	 0.883154
C	 -0.029776	 -0.365156	 0.000148
C	 1.212217	 0.508981	 0.000007
H	 -0.036772	 -1.013236	 -0.877259
H	 -0.036869	 -1.012778	 0.877897
C	 2.467646	 -0.259444	 -0.410238
H	 1.045986	 1.343122	 -0.674706
H	 1.337426	 0.929448	 0.993098
H	 2.372394	 -0.668420	 -1.412281
H	 3.338101	 0.387915	 -0.401239
H	 2.665572	 -1.085595	 0.267038
