25

O	 2.868453	 1.353349	 -0.000734
C	 2.841259	 0.166180	 -0.000295
C	 1.542794	 -0.614730	 -0.000853
C	 4.113372	 -0.651103	 0.000743
C	 0.288398	 0.247429	 0.000314
H	 1.557171	 -1.273139	 -0.866508
H	 1.557484	 -1.274998	 0.863344
C	 0.024112	 0.900439	 -1.353511
H	 0.381805	 1.009880	 0.765205
H	 -0.561155	 -0.361447	 0.287827
C	 -1.231010	 1.768107	 -1.365741
H	 0.881220	 1.507510	 -1.636540
H	 -0.066449	 0.129940	 -2.116001
C	 -1.501996	 2.425055	 -2.716194
H	 -1.141325	 2.538749	 -0.604045
H	 -2.088450	 1.161984	 -1.083715
C	 -2.757706	 3.290482	 -2.720526
H	 -0.645924	 3.032071	 -2.998350
H	 -1.593060	 1.655420	 -3.477959
H	 -2.683308	 4.091448	 -1.992543
H	 -2.920925	 3.741604	 -3.692570
H	 -3.637458	 2.704590	 -2.475960
H	 4.145311	 -1.294584	 -0.871587
H	 4.970080	 0.004978	 -0.000091
H	 4.145223	 -1.291980	 0.874988
