14

H	 1.889450	 1.682615	 0.337137
O	 1.002121	 1.337458	 0.354473
C	 1.050492	 0.053836	 0.000068
C	 -0.318135	 -0.576402	 0.000164
O	 2.071092	 -0.488261	 -0.274710
C	 -1.454360	 0.441875	 -0.000474
H	 -0.374042	 -1.230163	 -0.866135
H	 -0.374274	 -1.229227	 0.867154
C	 -2.826123	 -0.230780	 0.000056
H	 -1.357605	 1.085198	 -0.868380
H	 -1.357504	 1.086451	 0.866496
H	 -2.959731	 -0.858053	 -0.876869
H	 -3.619374	 0.509403	 -0.000080
H	 -2.959371	 -0.857318	 0.877556
