20

O	 0.967971	 1.697622	 -0.492789
C	 0.402597	 1.263457	 -1.437731
C	 -0.871719	 0.459508	 -1.402401
O	 0.829250	 1.433645	 -2.678448
C	 -1.413045	 0.229353	 0.001137
H	 -1.595427	 0.978189	 -2.022640
H	 -0.671776	 -0.480824	 -1.905652
C	 -2.702562	 -0.586401	 0.000228
H	 -1.584453	 1.186711	 0.480328
H	 -0.660304	 -0.274208	 0.597252
C	 -3.953810	 0.284959	 -0.000782
H	 -2.717793	 -1.238567	 -0.869075
H	 -2.719108	 -1.238472	 0.869576
H	 -3.983727	 0.924403	 -0.876454
H	 -4.852989	 -0.320147	 -0.001515
H	 -3.985140	 0.924399	 0.874841
C	 2.020010	 2.172987	 -2.859506
H	 1.908051	 3.176215	 -2.475805
H	 2.195637	 2.198664	 -3.922692
H	 2.846728	 1.693614	 -2.356553
