15

H	 2.342730	 0.877684	 -1.045694
C	 2.360424	 0.000000	 -0.411793
C	 1.173749	 0.000000	 0.526870
H	 3.286567	 0.000000	 0.151574
H	 2.342730	 -0.877684	 -1.045694
O	 -0.000000	 0.000000	 -0.223739
H	 1.203779	 0.876757	 1.172538
H	 1.203779	 -0.876757	 1.172538
C	 -1.173749	 0.000000	 0.526870
C	 -1.987305	 1.225252	 0.171664
H	 -0.936785	 0.000000	 1.590044
H	 -1.746167	 -0.904340	 0.324390
H	 -1.427647	 2.127271	 0.385247
H	 -2.907096	 1.246110	 0.744964
H	 -2.237885	 1.221975	 -0.881745
