20

H	 0.559871	 -3.346639	 -0.734483
O	 0.921754	 -2.606501	 -0.270875
C	 0.116995	 -1.562917	 -0.451782
C	 0.626018	 -0.337582	 0.258241
O	 -0.869001	 -1.635093	 -1.100198
C	 -0.267326	 0.883135	 0.076490
H	 0.741926	 -0.606795	 1.301289
H	 1.628560	 -0.149021	 -0.112955
C	 -1.726822	 0.642622	 0.463839
H	 -0.210803	 1.217591	 -0.953497
H	 0.129920	 1.693110	 0.675679
C	 -2.756161	 1.342562	 -0.421929
H	 -1.863626	 0.982120	 1.486229
H	 -1.928117	 -0.426420	 0.472622
C	 -4.186038	 1.152622	 0.073903
H	 -2.527544	 2.404192	 -0.463300
H	 -2.685977	 0.974717	 -1.440615
H	 -4.895338	 1.659951	 -0.569677
H	 -4.307764	 1.547252	 1.076972
H	 -4.454950	 0.101798	 0.098602
