27

H	 2.614283	 2.028610	 0.296620
O	 3.358864	 1.662087	 -0.142800
C	 3.565468	 0.338079	 0.273842
C	 2.533667	 -0.637565	 -0.272227
H	 4.548038	 0.064914	 -0.086598
H	 3.593945	 0.282242	 1.360360
C	 2.267899	 -0.496639	 -1.769343
H	 2.864169	 -1.648426	 -0.052938
H	 1.606090	 -0.483180	 0.273818
C	 1.203419	 -1.469354	 -2.274856
H	 3.192136	 -0.657286	 -2.314302
H	 1.950750	 0.522393	 -1.984463
C	 0.843578	 -1.321924	 -3.754394
H	 1.532212	 -2.488285	 -2.085380
H	 0.300797	 -1.329244	 -1.686543
C	 1.957217	 -1.695716	 -4.731037
H	 -0.020050	 -1.948600	 -3.959217
H	 0.525640	 -0.299466	 -3.945837
C	 1.518551	 -1.627583	 -6.191632
H	 2.304953	 -2.702314	 -4.508981
H	 2.812013	 -1.040846	 -4.591498
C	 2.629122	 -1.996558	 -7.169580
H	 0.671061	 -2.290493	 -6.342925
H	 1.162903	 -0.624763	 -6.412833
H	 2.984593	 -3.006719	 -6.995074
H	 2.283972	 -1.940596	 -8.195664
H	 3.477504	 -1.327531	 -7.069567
