15

H	 -3.162190	 0.493205	 -0.000107
C	 -2.363908	 -0.234727	 0.000005
O	 -1.158738	 0.454634	 -0.000087
H	 -2.464314	 -0.863616	 -0.882153
H	 -2.464327	 -0.863359	 0.882345
C	 -0.028611	 -0.359694	 0.000037
C	 -0.274202	 -1.554280	 0.899505
H	 0.837324	 0.202581	 0.350237
H	 0.192621	 -0.692349	 -1.014379
C	 0.921808	 -2.498208	 0.953477
H	 -0.511305	 -1.194449	 1.894607
H	 -1.150843	 -2.082283	 0.540806
H	 1.805234	 -1.995744	 1.333179
H	 0.719389	 -3.341459	 1.602302
H	 1.161234	 -2.889740	 -0.029603
