29

O	 3.091343	 1.150358	 0.212171
C	 2.701189	 0.057885	 -0.047330
C	 1.435612	 -0.268513	 -0.802691
O	 3.347903	 -1.046386	 0.304773
C	 0.661497	 0.972788	 -1.240905
H	 1.719401	 -0.889659	 -1.645800
H	 0.829194	 -0.900721	 -0.159055
C	 -0.677590	 0.658422	 -1.916563
H	 1.280560	 1.564279	 -1.908751
H	 0.482692	 1.594042	 -0.369989
C	 -0.567346	 -0.058446	 -3.265287
H	 -1.208769	 1.595903	 -2.063883
H	 -1.293762	 0.065769	 -1.241949
C	 -1.922375	 -0.250848	 -3.949304
H	 0.088575	 0.512124	 -3.921058
H	 -0.098445	 -1.031185	 -3.135353
C	 -1.824984	 -0.970836	 -5.295507
H	 -2.392787	 0.720056	 -4.095224
H	 -2.582296	 -0.812108	 -3.289613
C	 -3.182012	 -1.155570	 -5.973777
H	 -1.165105	 -0.411845	 -5.955606
H	 -1.358985	 -1.943334	 -5.151033
H	 -3.080149	 -1.668610	 -6.925102
H	 -3.658832	 -0.198121	 -6.163856
H	 -3.854320	 -1.740887	 -5.352745
C	 4.728119	 -1.109107	 -0.004993
H	 4.882018	 -1.033965	 -1.071845
H	 5.068212	 -2.067527	 0.355250
H	 5.265056	 -0.311663	 0.488280
