13

H	 -1.560284	 -2.105965	 0.000000
C	 -1.053184	 -1.157873	 -0.000000
N	 0.264200	 -1.178757	 -0.000000
C	 -1.764930	 0.029676	 0.000000
C	 0.894110	 -0.015667	 -0.000000
H	 -2.839578	 0.034981	 0.000000
N	 -1.148326	 1.194635	 0.000000
C	 0.169206	 1.171733	 -0.000000
C	 2.398706	 -0.037269	 0.000000
H	 0.673182	 2.121415	 0.000000
H	 2.766182	 -0.561966	 -0.874879
H	 2.810647	 0.964817	 0.000000
H	 2.766182	 -0.561966	 0.874880
