29

O	 2.405008	 1.279360	 2.008619
C	 2.230617	 0.243811	 1.462535
C	 1.246364	 -0.005813	 0.348416
O	 2.896449	 -0.857743	 1.769716
C	 0.453207	 1.232821	 -0.049003
H	 1.809691	 -0.411800	 -0.483082
H	 0.586940	 -0.802742	 0.677649
C	 -0.998367	 1.217982	 0.432195
H	 0.481498	 1.345443	 -1.127236
H	 0.951413	 2.105557	 0.354893
C	 -1.882951	 0.151251	 -0.211235
H	 -1.429490	 2.193659	 0.228843
H	 -1.019755	 1.099323	 1.513279
C	 -1.242540	 -1.234267	 -0.211356
H	 -2.831456	 0.107651	 0.319151
H	 -2.118301	 0.427902	 -1.234764
C	 -0.030043	 -1.343297	 -1.131539
H	 -1.983988	 -1.972284	 -0.507881
H	 -0.946098	 -1.492977	 0.802576
C	 0.603045	 -2.730726	 -1.127595
H	 -0.324742	 -1.085275	 -2.145096
H	 0.713169	 -0.608174	 -0.834746
H	 1.459969	 -2.773726	 -1.790027
H	 -0.105251	 -3.484937	 -1.454080
H	 0.939909	 -3.004404	 -0.133195
C	 3.855853	 -0.769013	 2.803441
H	 4.625268	 -0.055042	 2.549500
H	 4.280621	 -1.754923	 2.900707
H	 3.390542	 -0.470447	 3.731126
