25

H	 -5.397727	 -0.447736	 -3.356297
C	 -4.573726	 0.274278	 -3.275034
C	 -3.774488	 0.183115	 -2.003500
O	 -4.379332	 1.050256	 -4.145309
C	 -3.524744	 1.550768	 -1.360983
H	 -4.282422	 -0.489826	 -1.324907
H	 -2.820188	 -0.266764	 -2.268499
C	 -4.789956	 2.214817	 -0.822038
H	 -2.811705	 1.425107	 -0.553442
H	 -3.047858	 2.206839	 -2.085099
C	 -5.641798	 2.853761	 -1.915610
H	 -4.510717	 2.970879	 -0.092996
H	 -5.387848	 1.484585	 -0.282859
C	 -6.900381	 3.527547	 -1.372262
H	 -5.037082	 3.575553	 -2.455684
H	 -5.927719	 2.092630	 -2.638262
C	 -7.827821	 4.111512	 -2.439380
H	 -6.614724	 4.314215	 -0.677756
H	 -7.459838	 2.800038	 -0.790848
C	 -7.244121	 5.287623	 -3.218572
H	 -8.743922	 4.435874	 -1.955707
H	 -8.114795	 3.326049	 -3.133643
H	 -6.941812	 6.086551	 -2.549005
H	 -6.377675	 4.999038	 -3.801388
H	 -7.976863	 5.694192	 -3.906144
