25

O	 -4.741559	 3.677983	 3.374923
C	 -3.562142	 3.759984	 3.486103
C	 -2.630085	 2.634875	 3.084568
C	 -2.907686	 5.004973	 4.041002
C	 -2.930863	 2.021940	 1.724174
H	 -1.614819	 3.023858	 3.116108
H	 -2.673335	 1.879345	 3.865793
C	 -3.680986	 2.979313	 0.802292
H	 -3.508656	 1.115253	 1.862700
H	 -2.000960	 1.715273	 1.259020
C	 -3.989047	 2.376667	 -0.565277
H	 -4.611277	 3.284533	 1.276289
H	 -3.096541	 3.887090	 0.669527
C	 -4.735249	 1.047711	 -0.489145
H	 -3.059970	 2.235026	 -1.111965
H	 -4.576433	 3.084657	 -1.144807
C	 -3.848343	 -0.113528	 -0.052440
H	 -5.568808	 1.143089	 0.201522
H	 -5.169129	 0.823520	 -1.459920
H	 -3.426351	 0.064849	 0.930996
H	 -4.408018	 -1.040814	 -0.008570
H	 -3.023886	 -0.257249	 -0.742845
H	 -2.221465	 5.423139	 3.312795
H	 -3.662109	 5.735040	 4.290482
H	 -2.329392	 4.760820	 4.925313
