12

H	 -2.644180	 -0.653737	 1.272255
C	 -2.092774	 -0.380414	 0.391915
O	 -0.808934	 -0.154049	 0.752536
F	 -2.163230	 -1.351640	 -0.507133
F	 -2.627232	 0.691260	 -0.169301
C	 0.085006	 0.250800	 -0.215074
C	 1.447589	 0.404021	 0.456616
Cl	 -0.411330	 1.789899	 -0.943333
H	 0.183543	 -0.464862	 -1.012422
F	 2.349575	 0.774851	 -0.416270
F	 1.814002	 -0.755747	 0.948545
F	 1.424685	 1.272575	 1.429930
