15

H   2.332609   0.878551    -1.051851
C   2.357710   0.000000    -0.417167
C   1.175432   0.000000    0.532082
H   3.291263   0.000000    0.136880
H   2.332609   -0.878551    -1.051851
O   0.000000   0.000000    -0.221444
H   1.206604   0.877321    1.177902
H   1.206604   -0.877321    1.177902
C   -1.175432   0.000000    0.532082
C   -2.357710   0.000000    -0.417167
H   -1.206604   0.877321    1.177902
H   -1.206604   -0.877321    1.177902
H   -2.332609   0.878551    -1.051851
H   -3.291263   0.000000    0.136880
H   -2.332609   -0.878551    -1.051851
