16

H	 -2.626237	 1.996872	 1.565766
C	 -2.073006	 1.211653	 2.075913
O	 -0.783153	 1.091830	 1.576450
H	 -1.999767	 1.462773	 3.123989
H	 -2.628145	 0.280496	 1.977674
C	 -0.718530	 0.758693	 0.228682
C	 0.718529	 0.758687	 -0.228709
H	 -1.141212	 -0.232408	 0.064275
H	 -1.284564	 1.468360	 -0.370825
O	 1.401606	 -0.295166	 0.366636
H	 0.748705	 0.673477	 -1.312803
H	 1.176496	 1.708671	 0.046552
C	 2.714315	 -0.441627	 -0.061017
H	 2.765292	 -0.641548	 -1.128869
H	 3.305661	 0.447341	 0.150952
H	 3.143725	 -1.278506	 0.470147
