15

H   -2.440698   -1.809174    -0.000050
C   -1.667442   -1.070249    -0.000032
C   -1.963125   0.330367    -0.000023
C   -0.381684   -1.430609    -0.000080
H   -2.987307   0.653179    -0.000035
C   -0.977436   1.233137    -0.000009
H   -0.081178   -2.459607    -0.000131
N   0.640204   -0.530428    -0.000115
H   -1.161184   2.287745    0.000006
C   0.423275   0.836602    0.000085
C   2.006991   -1.033007    -0.000020
O   1.336090   1.616994    0.000175
H   2.182444   -1.636914    -0.880881
H   2.678769   -0.195442    -0.002236
H   2.183828   -1.633244    0.883082
