17

H	 -3.232358	 -0.470330	 1.214947
O	 -2.532211	 -0.880527	 0.729920
C	 -1.473611	 -0.075804	 0.756785
C	 -0.310616	 -0.658853	 0.000791
O	 -1.489217	 0.965612	 1.316410
C	 0.926581	 0.227233	 0.000178
H	 -0.654071	 -0.857986	 -1.009215
H	 -0.100591	 -1.629811	 0.437654
C	 2.220156	 -0.582071	 -0.000088
H	 0.899945	 0.878221	 -0.866390
H	 0.900542	 0.878581	 0.866486
C	 3.466689	 0.296012	 -0.000457
H	 2.239073	 -1.234095	 -0.869382
H	 2.239505	 -1.233985	 0.869270
H	 3.493549	 0.935857	 -0.875887
H	 4.368821	 -0.304526	 -0.001199
H	 3.494559	 0.935166	 0.875458
