16

H	 -0.000342	 -0.223902	 -3.352295
C	 -0.027146	 0.371068	 -2.446756
C	 0.024493	 -0.518541	 -1.216015
H	 -0.932586	 0.964979	 -2.449855
H	 0.819708	 1.049865	 -2.473332
N	 -0.042516	 0.263377	 -0.000000
H	 -0.822211	 -1.197105	 -1.225584
H	 0.921114	 -1.142847	 -1.255206
C	 0.024493	 -0.518541	 1.216015
H	 0.682568	 0.950412	 -0.000000
C	 -1.361033	 -0.934946	 1.680471
H	 0.618231	 -1.403872	 1.013253
H	 0.533333	 0.016660	 2.022157
H	 -1.864624	 -1.507323	 0.911483
H	 -1.299840	 -1.539606	 2.577884
H	 -1.973073	 -0.067762	 1.908576
