25

H	 -2.081484	 1.349793	 -2.875004
C	 -2.557190	 0.552102	 -2.288253
C	 -1.748957	 -0.710886	 -2.163692
O	 -3.629486	 0.721200	 -1.820393
C	 -0.320800	 -0.454782	 -1.673332
H	 -2.277596	 -1.395337	 -1.512999
H	 -1.711777	 -1.154554	 -3.156204
C	 -0.247837	 0.040196	 -0.230469
H	 0.244312	 -1.375725	 -1.767421
H	 0.162027	 0.263925	 -2.331004
C	 1.181757	 0.280428	 0.247371
H	 -0.728805	 -0.686732	 0.418648
H	 -0.819317	 0.958981	 -0.127163
C	 2.151032	 -0.811012	 -0.202643
H	 1.515939	 1.247397	 -0.115449
H	 1.191514	 0.341223	 1.333422
C	 3.580021	 -0.656538	 0.320835
H	 2.170545	 -0.847575	 -1.289412
H	 1.766632	 -1.772905	 0.124928
C	 4.327657	 0.562694	 -0.213579
H	 4.138806	 -1.549270	 0.057813
H	 3.561991	 -0.620783	 1.406976
H	 4.355973	 0.557257	 -1.298551
H	 3.867136	 1.491650	 0.100501
H	 5.351524	 0.571613	 0.142204
