10

H	 -0.894078	 0.505671	 1.376675
C	 0.117776	 0.748919	 1.073126
N	 0.526300	 -0.128137	 0.000000
H	 0.761767	 0.603941	 1.931204
H	 0.137505	 1.807600	 0.805961
C	 -0.247113	 0.037112	 -1.209233
H	 1.495047	 0.002122	 -0.195501
H	 -0.996493	 -0.743733	 -1.271440
H	 0.397975	 -0.057351	 -2.073512
H	 -0.763794	 0.997171	 -1.271673
