18

H	 -3.962728	 -0.414018	 -0.841437
C	 -2.913157	 -0.265376	 -0.672674
C	 -2.420041	 1.011994	 -0.475686
C	 -2.058229	 -1.351050	 -0.652829
H	 -3.084222	 1.854207	 -0.491222
C	 -1.071222	 1.202203	 -0.258884
H	 -2.441636	 -2.341253	 -0.805702
C	 -0.707390	 -1.162217	 -0.435865
H	 -0.672582	 2.184207	 -0.104572
C	 -0.209972	 0.116062	 -0.238155
H	 -0.042592	 -2.000857	 -0.419890
C	 1.238974	 0.374429	 0.000004
O	 1.590457	 1.622144	 -0.248302
O	 2.003206	 -0.450938	 0.374035
C	 2.887155	 2.019211	 0.152290
H	 3.003292	 1.914107	 1.220392
H	 2.980923	 3.054138	 -0.133580
H	 3.637313	 1.423952	 -0.346035
