27

H	 2.777048	 1.308001	 0.860716
O	 3.493138	 1.016388	 0.327792
C	 3.558564	 -0.385393	 0.327035
C	 2.450494	 -1.043810	 -0.481268
H	 4.518547	 -0.636051	 -0.103758
H	 3.553796	 -0.766041	 1.346611
C	 1.048863	 -0.830813	 0.086105
H	 2.494461	 -0.666870	 -1.498687
H	 2.660640	 -2.109577	 -0.530023
C	 -0.033292	 -1.533288	 -0.732617
H	 0.836874	 0.232330	 0.128437
H	 1.015448	 -1.197694	 1.110590
C	 -1.450041	 -1.414980	 -0.167747
H	 -0.018876	 -1.147266	 -1.748986
H	 0.219755	 -2.587312	 -0.806567
C	 -2.041121	 -0.006551	 -0.194127
H	 -2.100237	 -2.073043	 -0.737594
H	 -1.461523	 -1.790677	 0.852976
C	 -3.489218	 0.042606	 0.286507
H	 -1.987552	 0.385068	 -1.207652
H	 -1.445242	 0.660380	 0.421612
C	 -4.219984	 1.311773	 -0.139038
H	 -4.022855	 -0.824300	 -0.093339
H	 -3.510372	 -0.038577	 1.370031
H	 -4.244251	 1.405725	 -1.219696
H	 -5.244345	 1.313233	 0.215630
H	 -3.732090	 2.196311	 0.257073
