24

H	 -3.436473	 1.252944	 -1.023892
O	 -3.458596	 0.315260	 -0.960865
C	 -3.176635	 -0.080824	 0.355601
C	 -1.763371	 0.265266	 0.799691
H	 -3.321825	 -1.153438	 0.379502
H	 -3.895468	 0.357385	 1.043382
C	 -0.673390	 -0.426948	 -0.013392
H	 -1.631049	 1.344913	 0.747560
H	 -1.664587	 -0.001624	 1.849167
C	 0.737842	 -0.043159	 0.423759
H	 -0.806103	 -0.190518	 -1.063345
H	 -0.797221	 -1.503753	 0.074146
C	 1.643579	 0.328145	 -0.748769
H	 0.676884	 0.785873	 1.122243
H	 1.184076	 -0.870959	 0.971006
C	 1.979877	 -0.827000	 -1.693435
H	 2.566748	 0.757640	 -0.366484
H	 1.161187	 1.113495	 -1.324220
C	 2.834357	 -1.930232	 -1.073851
H	 2.504370	 -0.424122	 -2.554465
H	 1.057914	 -1.257483	 -2.075652
H	 3.761247	 -1.528071	 -0.677342
H	 3.090744	 -2.679437	 -1.814256
H	 2.320641	 -2.435677	 -0.265008
