24

H	 -3.436473	 1.252944	 -1.023892
O	 -3.458596	 0.315260	 -0.960865
C	 -3.176635	 -0.080824	 0.355601
C	 -1.763371	 0.265266	 0.799691
H	 -3.321825	 -1.153438	 0.379502
H	 -3.895468	 0.357385	 1.043382
C	 -0.673390	 -0.426948	 -0.013392
H	 -1.631049	 1.344913	 0.747560
H	 -1.664587	 -0.001624	 1.849167
C	 -0.356341	 0.287463	 -1.324524
H	 -0.974897	 -1.448092	 -0.218994
H	 0.229618	 -0.491635	 0.589017
C	 -0.159140	 1.791987	 -1.149687
H	 0.534269	 -0.155089	 -1.760244
H	 -1.162139	 0.113455	 -2.034642
C	 -1.415936	 2.562970	 -0.742381
H	 0.234140	 2.211537	 -2.072811
H	 0.604611	 1.955997	 -0.394435
C	 -2.518728	 2.589457	 -1.797981
H	 -1.131483	 3.585125	 -0.512028
H	 -1.810280	 2.144096	 0.179822
H	 -2.151593	 2.998340	 -2.733985
H	 -3.348129	 3.206757	 -1.471980
H	 -2.910531	 1.600002	 -2.000651
