20

O	 0.999222	 1.025664	 -0.758053
C	 1.121787	 0.124983	 0.000110
C	 0.136430	 -0.254122	 1.075663
O	 2.167739	 -0.685178	 -0.000678
C	 -1.091168	 0.643814	 1.127013
H	 -0.140724	 -1.289470	 0.906191
H	 0.671639	 -0.242529	 2.019527
C	 -2.066984	 0.231992	 2.225419
H	 -1.590834	 0.622675	 0.165021
H	 -0.777861	 1.670442	 1.280040
C	 -3.302189	 1.124006	 2.284330
H	 -2.374728	 -0.798513	 2.068603
H	 -1.560630	 0.254917	 3.186834
H	 -3.849559	 1.095455	 1.348298
H	 -3.976381	 0.808601	 3.072151
H	 -3.029600	 2.156484	 2.474763
C	 3.449556	 -0.089977	 -0.000570
H	 3.585694	 0.522473	 -0.879546
H	 4.155805	 -0.904274	 -0.001389
H	 3.586173	 0.521118	 0.879272
