13

H	 -2.497152	 -0.552467	 0.672705
N	 -1.731424	 0.087229	 0.668109
C	 -0.561396	 -0.500007	 0.035200
H	 -1.540581	 0.325283	 1.619027
C	 0.575129	 0.507849	 -0.048832
H	 -0.843399	 -0.803694	 -0.967529
H	 -0.206877	 -1.396869	 0.545464
C	 1.951750	 -0.141983	 0.035101
H	 0.478254	 1.061643	 -0.975981
H	 0.467676	 1.231891	 0.755499
H	 2.101550	 -0.848142	 -0.774949
H	 2.738260	 0.600794	 -0.026526
H	 2.078939	 -0.679792	 0.968824
