19

O	 -2.042549	 -1.228399	 -0.269030
C	 -1.653912	 -0.146171	 0.050137
C	 -0.332303	 0.024011	 0.778412
C	 -2.438579	 1.106236	 -0.272369
C	 0.640195	 0.885441	 -0.042599
H	 -0.490354	 0.473358	 1.754880
H	 0.092248	 -0.963064	 0.924568
C	 1.997004	 1.056785	 0.642047
H	 0.202436	 1.866052	 -0.221072
H	 0.775070	 0.423123	 -1.015847
C	 2.969124	 1.905556	 -0.176351
H	 1.853809	 1.511711	 1.619781
H	 2.433794	 0.077049	 0.820654
H	 2.574684	 2.903922	 -0.342889
H	 3.157250	 1.458229	 -1.147922
H	 3.922880	 2.007469	 0.331576
H	 -3.277823	 0.863061	 -0.908988
H	 -1.806773	 1.843019	 -0.759671
H	 -2.802853	 1.554979	 0.648059
