20

O	 1.214711	 1.306902	 -0.000018
C	 1.122059	 0.121804	 -0.000188
C	 -0.170150	 -0.657997	 -0.000612
O	 2.172624	 -0.688929	 0.000216
C	 -1.412532	 0.227344	 -0.000452
H	 -0.153702	 -1.313099	 -0.867402
H	 -0.153924	 -1.313811	 0.865644
C	 -1.288562	 1.403293	 -0.970577
H	 -1.589271	 0.596687	 1.004960
H	 -2.279976	 -0.372390	 -0.258062
C	 -2.529566	 2.294844	 -0.977711
H	 -0.417465	 2.000423	 -0.708467
H	 -1.108986	 1.027695	 -1.975937
H	 -2.716277	 2.713768	 0.006817
H	 -2.415706	 3.120526	 -1.673096
H	 -3.412607	 1.734247	 -1.270302
C	 3.452279	 -0.082609	 0.000533
H	 3.583069	 0.529321	 -0.880332
H	 4.163299	 -0.894027	 0.001117
H	 3.582335	 0.529955	 0.881077
