27

H	 2.614283	 2.028610	 0.296620
O	 3.358864	 1.662087	 -0.142800
C	 3.565468	 0.338079	 0.273842
C	 2.533667	 -0.637565	 -0.272227
H	 4.548038	 0.064914	 -0.086598
H	 3.593945	 0.282242	 1.360360
C	 1.114816	 -0.402372	 0.240993
H	 2.544552	 -0.580764	 -1.356576
H	 2.850574	 -1.642962	 -0.005497
C	 0.169508	 -1.558050	 -0.084029
H	 0.725486	 0.514620	 -0.188600
H	 1.141568	 -0.256090	 1.319498
C	 -1.248177	 -1.409101	 0.471162
H	 0.120765	 -1.686736	 -1.162589
H	 0.597832	 -2.475416	 0.310239
C	 -2.069495	 -0.279338	 -0.147558
H	 -1.775933	 -2.345744	 0.313991
H	 -1.198304	 -1.268936	 1.548669
C	 -3.506137	 -0.234431	 0.366692
H	 -2.080609	 -0.395881	 -1.229114
H	 -1.596886	 0.677972	 0.050436
C	 -4.327887	 0.894710	 -0.246218
H	 -3.990745	 -1.184843	 0.160660
H	 -3.496731	 -0.126527	 1.448048
H	 -4.383371	 0.797120	 -1.325401
H	 -5.341629	 0.896294	 0.137749
H	 -3.889684	 1.862532	 -0.025651
