25

H	 -3.667862	 1.340851	 -4.265602
C	 -3.294427	 2.109814	 -3.575582
C	 -2.771378	 1.585682	 -2.265774
O	 -3.333342	 3.250313	 -3.883895
C	 -3.290329	 2.376434	 -1.061168
H	 -3.020658	 0.535161	 -2.190943
H	 -1.687686	 1.669896	 -2.308464
C	 -4.789956	 2.214817	 -0.822038
H	 -2.747872	 2.053151	 -0.179369
H	 -3.052657	 3.429280	 -1.192397
C	 -5.641798	 2.853761	 -1.915610
H	 -5.045363	 2.654347	 0.138528
H	 -5.038748	 1.159570	 -0.744689
C	 -6.900381	 3.527547	 -1.372262
H	 -5.037082	 3.575553	 -2.455684
H	 -5.927719	 2.092630	 -2.638262
C	 -7.827821	 4.111512	 -2.439380
H	 -6.614724	 4.314215	 -0.677756
H	 -7.459838	 2.800038	 -0.790848
C	 -7.244121	 5.287623	 -3.218572
H	 -8.743922	 4.435874	 -1.955707
H	 -8.114795	 3.326049	 -3.133643
H	 -6.941812	 6.086551	 -2.549005
H	 -6.377675	 4.999038	 -3.801388
H	 -7.976863	 5.694192	 -3.906144
