15

H	 -3.162190	 0.493205	 -0.000107
C	 -2.363908	 -0.234727	 0.000005
O	 -1.158738	 0.454634	 -0.000087
H	 -2.464314	 -0.863616	 -0.882153
H	 -2.464327	 -0.863359	 0.882345
C	 -0.028611	 -0.359694	 0.000037
C	 1.212847	 0.509314	 -0.000053
H	 -0.034155	 -1.007047	 -0.877198
H	 -0.034195	 -1.006836	 0.877430
C	 1.873649	 0.580589	 -1.372136
H	 0.938485	 1.503645	 0.334546
H	 1.910532	 0.114980	 0.730486
H	 1.199918	 0.995629	 -2.114373
H	 2.756683	 1.207048	 -1.343515
H	 2.178727	 -0.402261	 -1.715651
