27

H	 -5.933112	 -3.253590	 -0.797987
O	 -6.209874	 -3.822333	 -0.103895
C	 -5.161946	 -4.677344	 0.270373
C	 -4.053089	 -3.976382	 1.040942
H	 -5.610443	 -5.438813	 0.894068
H	 -4.750293	 -5.178243	 -0.603750
C	 -3.286294	 -2.935150	 0.228716
H	 -4.485935	 -3.508367	 1.920012
H	 -3.361178	 -4.736303	 1.396156
C	 -2.160451	 -2.276497	 1.024636
H	 -3.975736	 -2.173517	 -0.119978
H	 -2.867021	 -3.407487	 -0.658072
C	 -1.311023	 -1.277304	 0.237018
H	 -2.581906	 -1.780832	 1.895796
H	 -1.507060	 -3.055605	 1.407441
C	 -2.041121	 -0.006551	 -0.194127
H	 -0.459957	 -0.995209	 0.850725
H	 -0.898923	 -1.770520	 -0.640516
C	 -3.489218	 0.042606	 0.286507
H	 -2.022185	 0.066287	 -1.279394
H	 -1.518764	 0.869305	 0.178730
C	 -4.219984	 1.311773	 -0.139038
H	 -4.022855	 -0.824300	 -0.093339
H	 -3.510372	 -0.038577	 1.370031
H	 -4.244251	 1.405725	 -1.219696
H	 -5.244345	 1.313233	 0.215630
H	 -3.732090	 2.196311	 0.257073
