18

H	 -4.031818	 -0.453427	 -0.000094
C	 -2.967712	 -0.297022	 -0.000064
C	 -2.458620	 0.992929	 0.000032
C	 -2.109895	 -1.385637	 -0.000122
H	 -3.124998	 1.836319	 0.000077
C	 -1.090278	 1.193236	 0.000070
H	 -2.506361	 -2.384847	 -0.000198
C	 -0.739812	 -1.187531	 -0.000085
H	 -0.678594	 2.184290	 0.000146
C	 -0.226438	 0.104061	 0.000012
H	 -0.072310	 -2.027032	 -0.000131
C	 1.239129	 0.373821	 0.000060
O	 1.711393	 0.675999	 -1.200048
O	 1.924721	 0.325523	 0.972938
C	 3.098578	 0.947942	 -1.291903
H	 3.359663	 1.795196	 -0.674820
H	 3.286462	 1.168554	 -2.331077
H	 3.674068	 0.088543	 -0.980192
