22

O	 -2.463822	 1.132254	 -0.138305
C	 -2.139471	 -0.001627	 0.005022
C	 -0.897019	 -0.550523	 -0.668084
C	 -2.931540	 -0.947817	 0.875724
C	 0.358027	 -0.244388	 0.158950
H	 -0.815585	 -0.079775	 -1.639616
H	 -0.990238	 -1.621401	 -0.814357
C	 1.630207	 -0.772146	 -0.501001
H	 0.419634	 0.827509	 0.298480
H	 0.261030	 -0.684056	 1.148688
C	 2.907848	 -0.545876	 0.309149
H	 1.740549	 -0.313317	 -1.480429
H	 1.516143	 -1.838460	 -0.675838
C	 3.373802	 0.906639	 0.372125
H	 3.699140	 -1.146831	 -0.127906
H	 2.764321	 -0.923458	 1.318191
H	 3.519798	 1.311927	 -0.623875
H	 4.316899	 0.983758	 0.900700
H	 2.661122	 1.540651	 0.885346
H	 -3.394191	 -1.705024	 0.250752
H	 -3.696052	 -0.407585	 1.412604
H	 -2.280158	 -1.462547	 1.573108
