25

H	 -7.584971	 5.459374	 -0.846665
C	 -6.661550	 5.152845	 -0.336549
C	 -5.408513	 5.814273	 -0.842813
O	 -6.703485	 4.351758	 0.531673
C	 -4.264228	 4.821758	 -1.069085
H	 -5.647988	 6.359952	 -1.746263
H	 -5.110921	 6.536015	 -0.085296
C	 -4.518857	 3.843616	 -2.213893
H	 -3.358099	 5.383102	 -1.269494
H	 -4.080044	 4.269479	 -0.150795
C	 -5.641798	 2.853761	 -1.915610
H	 -3.602727	 3.298406	 -2.424985
H	 -4.756909	 4.392774	 -3.121187
C	 -6.900381	 3.527547	 -1.372262
H	 -5.875886	 2.304049	 -2.821901
H	 -5.290244	 2.119119	 -1.194494
C	 -7.827821	 4.111512	 -2.439380
H	 -6.614724	 4.314215	 -0.677756
H	 -7.459838	 2.800038	 -0.790848
C	 -7.244121	 5.287623	 -3.218572
H	 -8.743922	 4.435874	 -1.955707
H	 -8.114795	 3.326049	 -3.133643
H	 -6.941812	 6.086551	 -2.549005
H	 -6.377675	 4.999038	 -3.801388
H	 -7.976863	 5.694192	 -3.906144
