20

H	 3.721907	 -0.933076	 -0.066039
O	 2.824271	 -1.154299	 0.131461
C	 2.076458	 -0.067370	 -0.038225
C	 0.626018	 -0.337582	 0.258241
O	 2.538288	 0.965419	 -0.381593
C	 -0.267326	 0.883135	 0.076490
H	 0.325620	 -1.161483	 -0.378003
H	 0.574537	 -0.713685	 1.275261
C	 -1.726822	 0.642622	 0.463839
H	 -0.210803	 1.217591	 -0.953497
H	 0.129920	 1.693110	 0.675679
C	 -2.480891	 -0.340606	 -0.429852
H	 -2.243098	 1.597649	 0.438609
H	 -1.776542	 0.301208	 1.495542
C	 -3.974404	 -0.388325	 -0.123882
H	 -2.335258	 -0.060734	 -1.469802
H	 -2.068109	 -1.338466	 -0.321032
H	 -4.485648	 -1.090599	 -0.772052
H	 -4.433243	 0.584796	 -0.262444
H	 -4.153855	 -0.693971	 0.901560
