19

H	 2.299121	 2.621971	 -2.614821
N	 1.534141	 1.981992	 -2.643973
C	 1.078246	 1.649055	 -1.303535
H	 1.850722	 1.166368	 -3.125513
C	 -0.139859	 0.738936	 -1.354802
H	 0.812224	 2.574883	 -0.804554
H	 1.852786	 1.177999	 -0.696783
C	 -0.678115	 0.376691	 0.025731
H	 -0.911929	 1.228174	 -1.939576
H	 0.120499	 -0.172222	 -1.890048
C	 -1.900706	 -0.535531	 -0.022488
H	 -0.934351	 1.287545	 0.562054
H	 0.104574	 -0.106860	 0.605773
C	 -3.220513	 0.226854	 0.028039
H	 -1.865036	 -1.134397	 -0.928236
H	 -1.857948	 -1.236381	 0.806820
H	 -3.309098	 0.911849	 -0.808725
H	 -4.066838	 -0.449485	 -0.008086
H	 -3.301685	 0.809374	 0.939860
