22

O	 4.092391	 1.715441	 -1.603909
C	 2.965764	 1.727416	 -1.227078
C	 1.844521	 1.194989	 -2.097356
C	 2.593223	 2.252824	 0.138911
C	 1.716019	 -0.327288	 -1.959508
H	 2.077843	 1.448364	 -3.123745
H	 0.905493	 1.669831	 -1.833505
C	 1.630207	 -0.772146	 -0.501001
H	 0.836459	 -0.644624	 -2.505310
H	 2.568356	 -0.811194	 -2.430309
C	 2.907848	 -0.545876	 0.309149
H	 1.364245	 -1.825672	 -0.464590
H	 0.816519	 -0.236302	 -0.019974
C	 3.373802	 0.906639	 0.372125
H	 3.699140	 -1.146831	 -0.127906
H	 2.764321	 -0.923458	 1.318191
H	 3.519798	 1.311927	 -0.623875
H	 4.316899	 0.983758	 0.900700
H	 2.661122	 1.540651	 0.885346
H	 2.015455	 3.164537	 0.025064
H	 3.483061	 2.459706	 0.713330
H	 1.967472	 1.540926	 0.665435
