23

O	 1.762128	 1.192921	 -0.495463
C	 1.704209	 0.119472	 -0.000093
C	 0.501586	 -0.457135	 0.701949
O	 2.715427	 -0.733672	 0.000025
C	 -0.697272	 0.479868	 0.734961
H	 0.257347	 -1.390578	 0.205481
H	 0.815335	 -0.729493	 1.704358
C	 -1.895188	 -0.135162	 1.452424
H	 -0.971907	 0.744588	 -0.279816
H	 -0.413186	 1.406559	 1.220584
C	 -3.107615	 0.790355	 1.496140
H	 -2.173416	 -1.065385	 0.961990
H	 -1.612136	 -0.401271	 2.468448
C	 -4.305055	 0.175534	 2.212760
H	 -3.391789	 1.056019	 0.481831
H	 -2.831317	 1.719143	 1.987232
H	 -4.627261	 -0.738068	 1.724140
H	 -5.147244	 0.857653	 2.225610
H	 -4.062484	 -0.069339	 3.241561
C	 4.020999	 -0.192556	 0.000019
H	 4.182809	 0.412891	 -0.879449
H	 4.692590	 -1.035653	 0.000152
H	 4.182726	 0.413087	 0.879368
