9

H	 0.705678	 -1.968183	 -0.899450
C	 -0.021812	 -1.184023	 -1.116938
N	 -0.537714	 -0.645117	 0.000000
O	 -0.295524	 -0.875005	 -2.233319
C	 -1.522613	 0.412524	 0.000000
H	 -0.217502	 -1.000693	 0.866610
H	 -2.150256	 0.356137	 -0.880771
H	 -1.005621	 1.357208	 0.000000
H	 -2.150256	 0.356137	 0.880771
