13

H	 0.010058	 4.087899	 0.860342
O	 -0.143639	 3.811128	 -0.031938
C	 -0.149280	 2.410164	 -0.097196
C	 1.256667	 1.847534	 0.014278
H	 -0.779267	 1.975158	 0.673676
H	 -0.570216	 2.142128	 -1.056059
O	 1.171513	 0.459272	 -0.058250
H	 1.709445	 2.155151	 0.958917
H	 1.874403	 2.246257	 -0.788223
C	 2.397842	 -0.198080	 -0.002151
H	 2.508049	 -0.905315	 -0.822092
H	 3.173794	 0.550865	 -0.078850
H	 2.517602	 -0.735921	 0.936026
