24

H	 -3.436473	 1.252944	 -1.023892
O	 -3.458596	 0.315260	 -0.960865
C	 -3.176635	 -0.080824	 0.355601
C	 -1.763371	 0.265266	 0.799691
H	 -3.321825	 -1.153438	 0.379502
H	 -3.895468	 0.357385	 1.043382
C	 -0.673390	 -0.426948	 -0.013392
H	 -1.631049	 1.344913	 0.747560
H	 -1.664587	 -0.001624	 1.849167
C	 0.737842	 -0.043159	 0.423759
H	 -0.806103	 -0.190518	 -1.063345
H	 -0.797221	 -1.503753	 0.074146
C	 1.824000	 -0.743224	 -0.390623
H	 0.850588	 1.033777	 0.343840
H	 0.868587	 -0.286314	 1.476203
C	 1.349707	 -1.963552	 -1.181632
H	 2.633893	 -1.039473	 0.272068
H	 2.250947	 -0.026821	 -1.087116
C	 0.898168	 -3.143720	 -0.324626
H	 2.160739	 -2.291783	 -1.824491
H	 0.539783	 -1.668797	 -1.843873
H	 1.686456	 -3.456871	 0.352585
H	 0.641135	 -3.993971	 -0.946114
H	 0.026615	 -2.902330	 0.271808
