15

O	 1.294735	 1.149866	 1.784769
C	 0.570239	 1.133633	 0.831061
C	 -0.462513	 2.226349	 0.646049
N	 0.622280	 0.144970	 -0.099307
H	 -1.465275	 1.819498	 0.610205
H	 -0.378882	 2.894444	 1.486970
H	 -0.291106	 2.780484	 -0.268570
C	 1.664396	 -0.854993	 0.000772
C	 -0.067251	 0.192930	 -1.366588
H	 2.462727	 -0.615153	 -0.690869
H	 1.261798	 -1.821849	 -0.240651
H	 2.081615	 -0.891605	 1.003877
H	 -0.347006	 -0.811396	 -1.657625
H	 -0.969222	 0.777621	 -1.307592
H	 0.559199	 0.605386	 -2.154297
