20

O	 1.074306	 1.121244	 0.637503
C	 1.121787	 0.124983	 0.000110
C	 0.030098	 -0.389478	 -0.902668
O	 2.167739	 -0.685178	 -0.000678
C	 -1.202813	 0.501689	 -0.943602
H	 0.461343	 -0.509455	 -1.891159
H	 -0.219421	 -1.390409	 -0.566011
C	 -2.286725	 -0.047723	 -1.866419
H	 -0.915355	 1.496138	 -1.266061
H	 -1.597168	 0.613868	 0.060114
C	 -3.526161	 0.838935	 -1.916692
H	 -1.884696	 -0.161058	 -2.869797
H	 -2.570513	 -1.044288	 -1.538456
H	 -3.280843	 1.833214	 -2.274203
H	 -4.277836	 0.424906	 -2.578689
H	 -3.971717	 0.943487	 -0.933265
C	 3.449556	 -0.089977	 -0.000570
H	 3.585694	 0.522473	 -0.879546
H	 4.155805	 -0.904274	 -0.001389
H	 3.586173	 0.521118	 0.879272
