9

H	 0.693550	 -1.979477	 0.899450
C	 -0.036872	 -1.198048	 1.116938
N	 -0.537714	 -0.645117	 0.000000
O	 -0.325636	 -0.903047	 2.233319
C	 -1.522613	 0.412524	 0.000000
H	 -0.205817	 -0.989812	 -0.866610
H	 -2.150256	 0.356137	 -0.880771
H	 -1.005621	 1.357208	 0.000000
H	 -2.150256	 0.356137	 0.880771
