15

O   -0.988096   -1.408613    0.050699
C   -0.676749   -0.249230    -0.009274
C   -1.746085   0.827156    -0.009539
N   0.623947   0.147590    -0.102813
H   -1.701500   1.431508    -0.908902
H   -2.703425   0.330732    0.036390
H   -1.647323   1.487769    0.845106
C   1.665360   -0.855771    0.000151
C   1.065976   1.516599    0.047752
H   2.465253   -0.618490    -0.692587
H   1.257730   -1.821716    -0.242189
H   2.081488   -0.891645    1.004627
H   1.943303   1.675392    -0.567976
H   0.310583   2.215465    -0.274586
H   1.333034   1.746388    1.077650
