20

O	 1.371313	 1.045657	 0.700935
C	 1.121787	 0.124983	 0.000110
C	 -0.170912	 -0.649867	 -0.000147
O	 1.969101	 -0.353489	 -0.896273
C	 -1.413045	 0.229353	 0.001137
H	 -0.152877	 -1.303435	 -0.866175
H	 -0.152278	 -1.305116	 0.864586
C	 -2.335775	 -0.066497	 -1.177571
H	 -1.114243	 1.271397	 -0.018911
H	 -1.950271	 0.088986	 0.932389
C	 -3.582883	 0.810725	 -1.187304
H	 -1.790969	 0.072628	 -2.107663
H	 -2.631665	 -1.111984	 -1.152239
H	 -3.320748	 1.861578	 -1.247131
H	 -4.218577	 0.579096	 -2.034014
H	 -4.167613	 0.668300	 -0.284870
C	 3.226978	 0.281687	 -1.004047
H	 3.107866	 1.319775	 -1.276836
H	 3.762124	 -0.246898	 -1.776112
H	 3.765395	 0.222432	 -0.069799
