19

O	 -2.071633	 -1.227563	 -0.223463
C	 -1.652164	 -0.152425	 0.058082
C	 -0.327811	 0.006324	 0.778296
C	 -2.402515	 1.108629	 -0.298924
C	 0.843231	 -0.001575	 -0.211665
H	 -0.319484	 0.928173	 1.350354
H	 -0.227804	 -0.823091	 1.466705
C	 0.464670	 -0.590858	 -1.567271
H	 1.673019	 -0.567160	 0.204579
H	 1.195402	 1.016089	 -0.340897
C	 1.622804	 -0.589228	 -2.559181
H	 0.107012	 -1.607741	 -1.431061
H	 -0.366340	 -0.027273	 -1.981197
H	 2.457426	 -1.174804	 -2.188315
H	 1.981199	 0.418391	 -2.739807
H	 1.322002	 -1.009280	 -3.511796
H	 -3.240910	 0.874416	 -0.936711
H	 -1.747554	 1.818823	 -0.790984
H	 -2.760419	 1.579708	 0.610998
