20

O	 -0.076310	 0.483595	 2.354137
C	 -0.846966	 0.612872	 1.465048
C	 -2.173805	 1.309788	 1.575767
O	 -0.637375	 0.157174	 0.243149
H	 -2.968567	 0.621154	 1.319145
H	 -2.308195	 1.673100	 2.581541
H	 -2.212328	 2.132476	 0.873435
C	 0.162530	 -1.009518	 0.097799
C	 1.587210	 -0.664190	 0.477086
H	 0.096803	 -1.356267	 -0.924704
H	 -0.233803	 -1.785900	 0.736810
C	 1.721937	 0.054830	 1.816721
H	 1.989283	 -0.037201	 -0.314090
H	 2.179367	 -1.574206	 0.484768
C	 3.166733	 0.411056	 2.150312
H	 1.122066	 0.960838	 1.796677
H	 1.311784	 -0.568996	 2.602507
H	 3.233107	 0.923372	 3.102947
H	 3.596342	 1.060832	 1.394918
H	 3.784949	 -0.478480	 2.209921
