24

H	 -3.436473	 1.252944	 -1.023892
O	 -3.458596	 0.315260	 -0.960865
C	 -3.176635	 -0.080824	 0.355601
C	 -1.763371	 0.265266	 0.799691
H	 -3.321825	 -1.153438	 0.379502
H	 -3.895468	 0.357385	 1.043382
C	 -0.673390	 -0.426948	 -0.013392
H	 -1.631049	 1.344913	 0.747560
H	 -1.664587	 -0.001624	 1.849167
C	 0.737842	 -0.043159	 0.423759
H	 -0.806103	 -0.190518	 -1.063345
H	 -0.797221	 -1.503753	 0.074146
C	 1.824000	 -0.743224	 -0.390623
H	 0.850588	 1.033777	 0.343840
H	 0.868587	 -0.286314	 1.476203
C	 2.727374	 -1.680597	 0.412555
H	 2.437117	 0.004779	 -0.888044
H	 1.348596	 -1.317646	 -1.180972
C	 3.614384	 -0.985045	 1.442392
H	 3.361653	 -2.223469	 -0.281531
H	 2.115603	 -2.428270	 0.910694
H	 4.233865	 -0.227021	 0.973649
H	 4.274178	 -1.697135	 1.924928
H	 3.033217	 -0.502957	 2.219207
