15

H	 -1.516470	 3.315382	 1.707599
O	 -1.320748	 2.437420	 1.437545
C	 -0.260281	 2.439980	 0.516990
C	 0.027642	 1.012027	 0.090274
H	 0.633194	 2.861633	 0.970508
H	 -0.507470	 3.054176	 -0.344476
C	 -1.138737	 0.285728	 -0.581921
H	 0.329944	 0.454049	 0.970490
H	 0.883612	 1.029939	 -0.579957
C	 -1.933983	 -0.631436	 0.343653
H	 -0.763151	 -0.285569	 -1.422081
H	 -1.808359	 1.035291	 -0.992333
H	 -2.789188	 -1.049673	 -0.174718
H	 -1.335629	 -1.461368	 0.700418
H	 -2.305435	 -0.092167	 1.209725
