20

O	 1.371313	 1.045657	 0.700935
C	 1.121787	 0.124983	 0.000110
C	 -0.170912	 -0.649867	 -0.000147
O	 1.969101	 -0.353489	 -0.896273
C	 -1.413045	 0.229353	 0.001137
H	 -0.152877	 -1.303435	 -0.866175
H	 -0.152278	 -1.305116	 0.864586
C	 -1.401101	 1.253910	 -1.129549
H	 -1.491474	 0.737034	 0.955940
H	 -2.294840	 -0.396333	 -0.079478
C	 -2.640511	 2.142002	 -1.136264
H	 -0.513636	 1.875650	 -1.045378
H	 -1.322205	 0.739339	 -2.083608
H	 -2.728667	 2.696534	 -0.208198
H	 -2.604841	 2.858805	 -1.948420
H	 -3.543082	 1.552032	 -1.254084
C	 3.226978	 0.281687	 -1.004047
H	 3.107866	 1.319775	 -1.276836
H	 3.762124	 -0.246898	 -1.776112
H	 3.765395	 0.222432	 -0.069799
