27

H	 -1.194546	 -7.195985	 -3.471958
O	 -0.413405	 -7.109886	 -3.985996
C	 -0.532914	 -6.029736	 -4.873840
C	 -0.452206	 -4.672208	 -4.191718
H	 0.284599	 -6.131656	 -5.574741
H	 -1.457057	 -6.107166	 -5.443415
C	 0.704779	 -4.533989	 -3.204738
H	 -0.374096	 -3.905418	 -4.956629
H	 -1.391591	 -4.503814	 -3.670568
C	 0.535289	 -5.415349	 -1.968084
H	 0.793915	 -3.496688	 -2.899674
H	 1.636729	 -4.794777	 -3.703482
C	 1.701674	 -5.372571	 -0.979160
H	 -0.381357	 -5.136549	 -1.454024
H	 0.398390	 -6.443038	 -2.293018
C	 3.009841	 -5.968591	 -1.496077
H	 1.878782	 -4.336068	 -0.705626
H	 1.412736	 -5.880722	 -0.061854
C	 3.483501	 -7.168232	 -0.679428
H	 3.781425	 -5.201776	 -1.485084
H	 2.898094	 -6.272898	 -2.532375
C	 4.787405	 -7.768073	 -1.195101
H	 3.610487	 -6.868801	 0.357294
H	 2.710250	 -7.931867	 -0.682378
H	 5.589371	 -7.037552	 -1.174452
H	 5.096164	 -8.614511	 -0.592342
H	 4.682460	 -8.112344	 -2.218729
