28

H	 2.436343	 0.175537	 5.877117
C	 2.008767	 -0.651474	 5.322051
C	 0.955104	 -0.165236	 4.332763
H	 2.818258	 -1.159147	 4.809012
H	 1.583961	 -1.346647	 6.039042
C	 0.322092	 -1.306046	 3.539152
H	 1.407088	 0.543729	 3.648644
H	 0.177208	 0.370875	 4.871544
C	 -0.741177	 -0.849858	 2.545050
H	 1.093347	 -1.848382	 3.006361
H	 -0.136587	 -2.006633	 4.230943
C	 -0.199783	 -0.120383	 1.327165
H	 -1.283783	 -1.711501	 2.164371
H	 -1.485135	 -0.225216	 3.030711
C	 -1.180025	 0.697761	 0.509157
O	 0.942904	 -0.199736	 1.008978
C	 -2.285431	 -0.137488	 -0.145671
H	 -0.606438	 1.215816	 -0.247452
H	 -1.629406	 1.444442	 1.158556
C	 -3.646545	 0.082747	 0.508954
H	 -2.348635	 0.118247	 -1.199806
H	 -2.034895	 -1.192387	 -0.096473
C	 -4.757412	 -0.737227	 -0.138149
H	 -3.900211	 1.137405	 0.459735
H	 -3.580878	 -0.166775	 1.564416
H	 -4.867876	 -0.486707	 -1.187777
H	 -4.549650	 -1.800049	 -0.072540
H	 -5.709585	 -0.556397	 0.346597
