10

H	 1.179002	 0.284078	 1.809197
O	 1.360291	 -0.092411	 0.966675
C	 0.706474	 0.636793	 -0.025501
C	 -0.793473	 0.591216	 0.050087
H	 1.028512	 0.222085	 -0.973451
H	 1.027297	 1.676844	 -0.017452
C	 -1.534243	 -0.493009	 -0.013340
H	 -1.266611	 1.552628	 0.164437
H	 -1.101195	 -1.466332	 -0.144046
H	 -2.604242	 -0.437780	 0.050785
