22

O	 -1.451718	 2.403329	 0.467220
C	 -1.539148	 1.451989	 -0.238994
C	 -0.308600	 0.830666	 -0.869675
C	 -2.870698	 0.801629	 -0.530156
C	 0.376695	 -0.140025	 0.100361
H	 0.372075	 1.634230	 -1.120827
H	 -0.575803	 0.311329	 -1.783873
C	 1.630207	 -0.772146	 -0.501001
H	 0.621592	 0.400973	 1.005665
H	 -0.318399	 -0.926653	 0.383840
C	 2.907848	 -0.545876	 0.309149
H	 1.772784	 -0.391628	 -1.509394
H	 1.468529	 -1.842059	 -0.599744
C	 3.373802	 0.906639	 0.372125
H	 3.699140	 -1.146831	 -0.127906
H	 2.764321	 -0.923458	 1.318191
H	 3.519798	 1.311927	 -0.623875
H	 4.316899	 0.983758	 0.900700
H	 2.661122	 1.540651	 0.885346
H	 -3.119216	 0.950348	 -1.576158
H	 -3.640487	 1.236905	 0.088333
H	 -2.819115	 -0.268312	 -0.362364
