21

H	 -2.333605	 1.154460	 3.784137
O	 -1.630977	 0.588395	 3.498149
C	 -1.338746	 0.843401	 2.148273
C	 -0.209899	 -0.079659	 1.724700
H	 -2.216089	 0.669120	 1.526820
H	 -1.042484	 1.882372	 2.010046
C	 0.198102	 0.111031	 0.262842
H	 -0.525127	 -1.105553	 1.894704
H	 0.640178	 0.097910	 2.377628
C	 1.331804	 -0.827780	 -0.158768
H	 -0.669147	 -0.046627	 -0.373707
H	 0.511761	 1.142070	 0.104428
C	 2.723619	 -0.410569	 0.329459
H	 1.342964	 -0.912588	 -1.244120
H	 1.116806	 -1.824343	 0.220779
C	 3.243875	 0.895854	 -0.272975
H	 3.424222	 -1.207124	 0.091250
H	 2.714788	 -0.329854	 1.414619
H	 3.251977	 0.848779	 -1.358681
H	 2.637085	 1.747371	 0.016682
H	 4.259473	 1.094070	 0.055697
