24

H	 -3.498985	 1.253143	 -1.010443
O	 -3.458596	 0.315260	 -0.960865
C	 -3.176635	 -0.080824	 0.355601
C	 -1.763371	 0.265266	 0.799691
H	 -3.321825	 -1.153438	 0.379502
H	 -3.895468	 0.357385	 1.043382
C	 -0.861159	 0.748622	 -0.331990
H	 -1.813784	 1.024111	 1.579099
H	 -1.329905	 -0.617336	 1.263921
C	 -0.539074	 -0.341185	 -1.351084
H	 0.059797	 1.138803	 0.086952
H	 -1.343272	 1.582515	 -0.836665
C	 -1.775995	 -1.110907	 -1.810002
H	 -0.045349	 0.110901	 -2.205918
H	 0.175690	 -1.039040	 -0.919844
C	 -2.439124	 -1.966953	 -0.729589
H	 -1.511808	 -1.742946	 -2.654740
H	 -2.508202	 -0.399861	 -2.182704
C	 -1.596564	 -3.142321	 -0.239951
H	 -3.375177	 -2.351201	 -1.123206
H	 -2.703036	 -1.336409	 0.115506
H	 -1.312390	 -3.787711	 -1.065053
H	 -2.151517	 -3.742987	 0.471715
H	 -0.688293	 -2.814088	 0.250878
