24

H	 -3.436473	 1.252944	 -1.023892
O	 -3.458596	 0.315260	 -0.960865
C	 -3.176635	 -0.080824	 0.355601
C	 -1.763371	 0.265266	 0.799691
H	 -3.321825	 -1.153438	 0.379502
H	 -3.895468	 0.357385	 1.043382
C	 -0.681785	 -0.176652	 -0.181738
H	 -1.696781	 1.340260	 0.960370
H	 -1.591481	 -0.197011	 1.768784
C	 0.726890	 0.207538	 0.263237
H	 -0.885761	 0.253638	 -1.155985
H	 -0.738119	 -1.255310	 -0.307557
C	 1.805048	 -0.242058	 -0.720881
H	 0.772588	 1.284063	 0.397010
H	 0.929431	 -0.229954	 1.238652
C	 3.240668	 0.048851	 -0.280183
H	 1.625989	 0.224972	 -1.686630
H	 1.704508	 -1.312180	 -0.880099
C	 3.595879	 1.531620	 -0.200412
H	 3.917985	 -0.433125	 -0.978550
H	 3.420592	 -0.416912	 0.685277
H	 3.420200	 2.025442	 -1.150861
H	 4.642301	 1.663247	 0.050420
H	 3.013950	 2.048494	 0.553117
