22

O	 -0.081361	 -0.994599	 -2.864174
C	 -0.671035	 -0.208805	 -2.186496
C	 -0.889235	 -0.467034	 -0.705952
C	 -1.199443	 1.089767	 -2.753834
C	 0.379448	 -0.143569	 0.099626
H	 -1.134954	 -1.516795	 -0.587935
H	 -1.724571	 0.119782	 -0.334620
C	 1.631333	 -0.777471	 -0.511575
H	 0.482768	 0.934507	 0.149241
H	 0.263088	 -0.495696	 1.123449
C	 2.915987	 -0.544314	 0.291766
H	 1.766672	 -0.399098	 -1.523130
H	 1.471257	 -1.849544	 -0.605828
C	 3.373361	 0.914346	 0.347591
H	 3.708709	 -1.142521	 -0.150311
H	 2.780642	 -0.921148	 1.303579
H	 3.506512	 1.320010	 -0.651625
H	 4.322697	 0.999599	 0.867103
H	 2.660624	 1.545032	 0.868198
H	 -2.285975	 1.084481	 -2.727697
H	 -0.865552	 1.210745	 -3.774944
H	 -0.869019	 1.933591	 -2.155013
