16

O	 -2.081319	 -0.951530	 -0.502732
N	 -1.613558	 0.006676	 0.014756
C	 -0.329345	 -0.171618	 0.743966
O	 -2.068523	 1.100482	 -0.024385
C	 0.835904	 0.041968	 -0.213982
H	 -0.346048	 -1.174374	 1.137184
H	 -0.333613	 0.555559	 1.538590
C	 2.177039	 -0.130175	 0.494460
H	 0.754456	 -0.665923	 -1.030569
H	 0.765464	 1.037260	 -0.637266
C	 3.270294	 0.744658	 -0.108815
H	 2.479799	 -1.172010	 0.445957
H	 2.062369	 0.109399	 1.547485
H	 3.430803	 0.504374	 -1.153898
H	 3.009174	 1.795188	 -0.046202
H	 4.209610	 0.604571	 0.411977
