14

H   -0.728554   -2.084141    -0.000064
C   -0.211411   -1.141251    -0.000027
N   1.105691   -1.206900    -0.000002
C   -0.935944   0.037811    -0.000021
C   1.780427   -0.079344    0.000022
C   -0.204991   1.214951    -0.000009
C   -2.442471   0.038290    0.000014
H   2.851862   -0.160295    0.000040
C   1.171145   1.161879    0.000016
H   -0.709620   2.163985    -0.000023
H   -2.833347   0.546037    -0.874294
H   -2.832030   -0.970853    -0.000701
H   -2.833303   0.544759    0.875084
H   1.762550   2.056344    0.000025
