22

O	 0.124820	 1.263352	 -4.257318
C	 -0.347323	 1.237772	 -3.167429
C	 -0.037275	 0.106299	 -2.207383
C	 -1.261540	 2.334161	 -2.674574
C	 1.281740	 0.358917	 -1.466285
H	 0.040957	 -0.804039	 -2.788137
H	 -0.844841	 -0.012910	 -1.492897
C	 1.630207	 -0.772146	 -0.501001
H	 2.065933	 0.484825	 -2.202095
H	 1.218313	 1.292888	 -0.913136
C	 2.907848	 -0.545876	 0.309149
H	 1.718495	 -1.701698	 -1.057883
H	 0.802670	 -0.908887	 0.189715
C	 3.373802	 0.906639	 0.372125
H	 3.699140	 -1.146831	 -0.127906
H	 2.764321	 -0.923458	 1.318191
H	 3.519798	 1.311927	 -0.623875
H	 4.316899	 0.983758	 0.900700
H	 2.661122	 1.540651	 0.885346
H	 -2.262897	 1.934503	 -2.549846
H	 -1.283937	 3.146912	 -3.384154
H	 -0.937992	 2.695505	 -1.704864
