15

H   -3.162190   0.493205    -0.000107
C   -2.363908   -0.234727    0.000005
O   -1.158738   0.454634    -0.000087
H   -2.464314   -0.863616    -0.882153
H   -2.464327   -0.863359    0.882345
C   -0.028611   -0.359694    0.000037
C   1.212847   0.509314    -0.000053
H   -0.034155   -1.007047    -0.877198
H   -0.034195   -1.006836    0.877430
C   2.497892   -0.311058    0.000090
H   1.182189   1.155367    -0.870456
H   1.182169   1.155529    0.870244
H   2.560486   -0.947939    -0.876010
H   3.367935   0.333958    -0.000109
H   2.560609   -0.947545    0.876457
