25

H	 -8.559225	 4.634043	 -2.079915
C	 -7.583339	 5.057740	 -2.353799
C	 -7.190452	 4.865117	 -3.793392
O	 -6.926044	 5.604811	 -1.537720
C	 -5.747514	 4.377423	 -3.953892
H	 -7.895076	 4.185413	 -4.254739
H	 -7.295819	 5.834257	 -4.276060
C	 -5.518198	 2.960204	 -3.433231
H	 -5.485576	 4.421831	 -5.005441
H	 -5.076362	 5.066123	 -3.446506
C	 -5.641798	 2.853761	 -1.915610
H	 -4.530996	 2.624989	 -3.740100
H	 -6.224782	 2.278117	 -3.898983
C	 -6.900381	 3.527547	 -1.372262
H	 -5.630302	 1.805316	 -1.634582
H	 -4.766931	 3.304276	 -1.451990
C	 -7.827821	 4.111512	 -2.439380
H	 -6.614724	 4.314215	 -0.677756
H	 -7.459838	 2.800038	 -0.790848
C	 -7.244121	 5.287623	 -3.218572
H	 -8.743922	 4.435874	 -1.955707
H	 -8.114795	 3.326049	 -3.133643
H	 -6.941812	 6.086551	 -2.549005
H	 -6.377675	 4.999038	 -3.801388
H	 -7.976863	 5.694192	 -3.906144
