25

O	 2.862325	 1.357334	 0.000267
C	 2.843464	 0.164689	 -0.000222
C	 1.546494	 -0.624492	 -0.000609
C	 4.124123	 -0.644674	 -0.000428
C	 0.291004	 0.242674	 0.000989
H	 1.557904	 -1.283758	 -0.867573
H	 1.558622	 -1.285963	 0.864672
C	 -0.994322	 -0.586602	 0.000262
H	 0.309117	 0.896430	 -0.865270
H	 0.309661	 0.894078	 0.869017
C	 -2.259874	 0.272531	 0.000494
H	 -1.004862	 -1.240012	 -0.870939
H	 -1.005220	 -1.241071	 0.870675
C	 -2.317122	 1.265725	 1.162519
H	 -3.133993	 -0.375165	 0.038251
H	 -2.325298	 0.816318	 -0.940257
C	 -3.584274	 2.120107	 1.156056
H	 -2.253007	 0.723222	 2.103477
H	 -1.444617	 1.914711	 1.124969
H	 -4.474465	 1.501489	 1.226924
H	 -3.596081	 2.813356	 1.991501
H	 -3.659781	 2.702308	 0.242008
H	 4.165367	 -1.288615	 -0.874074
H	 4.976217	 0.020734	 -0.001915
H	 4.166763	 -1.286207	 0.874930
