20

O	 1.216069	 1.304886	 0.000821
C	 1.121787	 0.124983	 0.000110
C	 -0.170912	 -0.649867	 -0.000147
O	 2.167739	 -0.685178	 -0.000678
C	 -1.413045	 0.229353	 0.001137
H	 -0.152877	 -1.303435	 -0.866175
H	 -0.152278	 -1.305116	 0.864586
C	 -1.654151	 0.896731	 -1.349709
H	 -1.315850	 0.985418	 0.772149
H	 -2.275042	 -0.368879	 0.274313
C	 -2.895451	 1.782156	 -1.358957
H	 -0.785783	 1.492009	 -1.619563
H	 -1.750543	 0.134247	 -2.118190
H	 -2.814415	 2.575999	 -0.624225
H	 -3.041539	 2.242408	 -2.329268
H	 -3.786182	 1.208403	 -1.126605
C	 3.449556	 -0.089977	 -0.000570
H	 3.585694	 0.522473	 -0.879546
H	 4.155805	 -0.904274	 -0.001389
H	 3.586173	 0.521118	 0.879272
