20

H	 2.860194	 -1.205266	 2.337986
O	 2.307279	 -1.322725	 1.571668
C	 1.538104	 -0.241380	 1.447265
C	 0.624473	 -0.343591	 0.253101
O	 1.599564	 0.668156	 2.208831
C	 -0.265902	 0.883932	 0.072916
H	 1.253510	 -0.522270	 -0.612785
H	 0.029880	 -1.244869	 0.379235
C	 -1.728698	 0.646073	 0.462102
H	 -0.209144	 1.219470	 -0.958188
H	 0.135059	 1.692851	 0.673903
C	 -2.482460	 -0.343073	 -0.431425
H	 -2.245265	 1.602650	 0.432430
H	 -1.779332	 0.308348	 1.496285
C	 -3.960546	 -0.461025	 -0.060175
H	 -2.395034	 -0.026811	 -1.468912
H	 -2.024850	 -1.327147	 -0.371646
H	 -4.472726	 -1.168004	 -0.705284
H	 -4.465146	 0.496508	 -0.151489
H	 -4.081218	 -0.800940	 0.964585
