27

H	 2.553704	 -4.677193	 3.109539
O	 3.055490	 -5.428853	 2.854493
C	 2.446166	 -6.602050	 3.325244
C	 1.174956	 -6.968672	 2.574045
H	 3.179832	 -7.386848	 3.199525
H	 2.240191	 -6.521382	 4.390850
C	 1.305446	 -6.908942	 1.053764
H	 0.870784	 -7.966348	 2.876168
H	 0.389510	 -6.288444	 2.894611
C	 1.491486	 -5.484886	 0.531952
H	 0.422603	 -7.347354	 0.600569
H	 2.152647	 -7.516908	 0.740850
C	 1.701674	 -5.372571	 -0.979160
H	 0.632403	 -4.884024	 0.820340
H	 2.349587	 -5.043774	 1.031505
C	 3.009841	 -5.968591	 -1.496077
H	 0.874549	 -5.871746	 -1.476368
H	 1.642274	 -4.326858	 -1.272607
C	 3.483501	 -7.168232	 -0.679428
H	 3.781425	 -5.201776	 -1.485084
H	 2.898094	 -6.272898	 -2.532375
C	 4.787405	 -7.768073	 -1.195101
H	 3.610487	 -6.868801	 0.357294
H	 2.710250	 -7.931867	 -0.682378
H	 5.589371	 -7.037552	 -1.174452
H	 5.096164	 -8.614511	 -0.592342
H	 4.682460	 -8.112344	 -2.218729
