25

H	 -2.702185	 0.531990	 1.764532
C	 -2.881683	 0.259339	 0.715567
C	 -2.460135	 1.296441	 -0.289722
O	 -3.381262	 -0.778934	 0.451529
C	 -3.524744	 1.550768	 -1.360983
H	 -2.201881	 2.204370	 0.239716
H	 -1.557743	 0.918642	 -0.765391
C	 -4.789956	 2.214817	 -0.822038
H	 -3.090895	 2.175859	 -2.133884
H	 -3.782346	 0.610638	 -1.842636
C	 -5.641798	 2.853761	 -1.915610
H	 -4.510717	 2.970879	 -0.092996
H	 -5.387848	 1.484585	 -0.282859
C	 -6.900381	 3.527547	 -1.372262
H	 -5.037082	 3.575553	 -2.455684
H	 -5.927719	 2.092630	 -2.638262
C	 -7.827821	 4.111512	 -2.439380
H	 -6.614724	 4.314215	 -0.677756
H	 -7.459838	 2.800038	 -0.790848
C	 -7.244121	 5.287623	 -3.218572
H	 -8.743922	 4.435874	 -1.955707
H	 -8.114795	 3.326049	 -3.133643
H	 -6.941812	 6.086551	 -2.549005
H	 -6.377675	 4.999038	 -3.801388
H	 -7.976863	 5.694192	 -3.906144
