12

H	 -0.000105	 1.988529	 0.748933
O	 -0.000098	 1.879786	 -0.188206
C	 -0.000014	 0.545691	 -0.532416
C	 1.426669	 0.074262	 -0.818960
C	 -0.990250	 0.293876	 -1.670747
H	 -0.351529	 -0.017012	 0.319912
F	 2.164105	 0.251031	 0.249591
F	 1.477146	 -1.194660	 -1.136768
F	 1.971211	 0.764052	 -1.798265
F	 -2.191885	 0.646823	 -1.285572
F	 -1.034728	 -0.966415	 -2.022034
F	 -0.687192	 1.005620	 -2.735149
