29

O	 3.223041	 0.966497	 -0.599088
C	 2.700869	 0.062337	 -0.041581
C	 1.246364	 -0.005813	 0.348416
O	 3.346200	 -1.034685	 0.320642
C	 0.453207	 1.232821	 -0.049003
H	 0.843511	 -0.906926	 -0.097966
H	 1.210761	 -0.164560	 1.421664
C	 -0.998367	 1.217982	 0.432195
H	 0.481498	 1.345443	 -1.127236
H	 0.951413	 2.105557	 0.354893
C	 -1.882951	 0.151251	 -0.211235
H	 -1.429490	 2.193659	 0.228843
H	 -1.019755	 1.099323	 1.513279
C	 -1.242540	 -1.234267	 -0.211356
H	 -2.831456	 0.107651	 0.319151
H	 -2.118301	 0.427902	 -1.234764
C	 -0.030043	 -1.343297	 -1.131539
H	 -1.983988	 -1.972284	 -0.507881
H	 -0.946098	 -1.492977	 0.802576
C	 0.603045	 -2.730726	 -1.127595
H	 -0.324742	 -1.085275	 -2.145096
H	 0.713169	 -0.608174	 -0.834746
H	 1.459969	 -2.773726	 -1.790027
H	 -0.105251	 -3.484937	 -1.454080
H	 0.939909	 -3.004404	 -0.133195
C	 4.724542	 -1.106636	 0.017472
H	 4.884394	 -1.043602	 -1.048696
H	 5.061457	 -2.060991	 0.388416
H	 5.264058	 -0.306666	 0.502473
