29

O	 1.377225	 -1.778731	 -1.839138
C	 1.557342	 -1.503419	 -0.702150
C	 2.078088	 -0.184536	 -0.190582
O	 1.317782	 -2.342573	 0.292610
C	 2.367860	 0.823039	 -1.296058
H	 1.347848	 0.187935	 0.517631
H	 2.971544	 -0.396960	 0.388160
C	 1.181793	 1.076753	 -2.227568
H	 3.222199	 0.486044	 -1.872781
H	 2.666655	 1.758853	 -0.840005
C	 -0.151951	 1.325018	 -1.524788
H	 1.074853	 0.213608	 -2.877728
H	 1.407370	 1.917914	 -2.879369
C	 -0.051012	 2.349922	 -0.398214
H	 -0.881559	 1.666349	 -2.255565
H	 -0.539389	 0.395408	 -1.118276
C	 0.761057	 1.860653	 0.797584
H	 -1.051146	 2.617527	 -0.065860
H	 0.395111	 3.264038	 -0.783224
C	 0.855813	 2.889289	 1.919505
H	 0.316368	 0.947401	 1.183516
H	 1.761858	 1.595404	 0.467588
H	 1.438244	 2.510843	 2.751692
H	 -0.127927	 3.149527	 2.295858
H	 1.328058	 3.802955	 1.573952
C	 0.824678	 -3.623490	 -0.043565
H	 -0.139967	 -3.792406	 0.411591
H	 1.544729	 -4.329140	 0.337866
H	 0.731980	 -3.727573	 -1.114467
