18

H	 -2.172150	 0.880146	 0.502514
C	 -2.018062	 -0.000025	 -0.114509
O	 -0.774054	 0.001095	 -0.743181
H	 -2.760490	 0.003458	 -0.901350
H	 -2.173624	 -0.884374	 0.496163
C	 0.340447	 0.584067	 -0.091596
C	 1.484683	 0.381305	 -1.082366
C	 0.118313	 2.080423	 0.150816
C	 0.652904	 -0.138761	 1.222560
H	 1.254924	 0.869241	 -2.022877
H	 1.626633	 -0.675654	 -1.277460
H	 2.412831	 0.790623	 -0.696800
H	 -0.172562	 2.571118	 -0.772027
H	 1.031990	 2.542842	 0.509933
H	 -0.651264	 2.265000	 0.892596
H	 0.737992	 -1.206902	 1.052601
H	 1.592108	 0.217251	 1.633271
H	 -0.112471	 0.027444	 1.973032
