15

O	 -0.988175	 -1.402891	 0.050086
C	 -0.675048	 -0.248293	 -0.009686
C	 -1.742492	 0.826599	 -0.011538
N	 0.622280	 0.144970	 -0.099307
H	 -1.692153	 1.431066	 -0.908439
H	 -2.698310	 0.331559	 0.031353
H	 -1.642148	 1.483784	 0.843455
C	 0.919391	 1.558899	 -0.191392
C	 1.710706	 -0.738066	 -0.444749
H	 1.811230	 1.778704	 0.382656
H	 0.094970	 2.127508	 0.198729
H	 1.093931	 1.859544	 -1.221333
H	 2.609250	 -0.410377	 0.062078
H	 1.514931	 -1.751026	 -0.137371
H	 1.911848	 -0.735684	 -1.513665
