15

H	 -3.161837	 0.500524	 -0.000234
C	 -2.367097	 -0.232926	 -0.000000
O	 -1.158440	 0.455814	 -0.000122
H	 -2.468853	 -0.861886	 -0.882833
H	 -2.468942	 -0.861421	 0.883154
C	 -0.029776	 -0.365156	 0.000148
C	 1.212217	 0.508981	 0.000007
H	 -0.036772	 -1.013236	 -0.877259
H	 -0.036869	 -1.012778	 0.877897
C	 2.245383	 0.056253	 -1.030762
H	 0.911840	 1.533796	 -0.195414
H	 1.644182	 0.493603	 0.995933
H	 1.840195	 0.087639	 -2.038364
H	 3.120646	 0.696781	 -1.008787
H	 2.577289	 -0.960340	 -0.838977
