22

O	 3.987059	 -3.534696	 0.028536
C	 3.580917	 -2.915477	 -0.900468
C	 2.159380	 -3.092026	 -1.396565
C	 4.447107	 -1.910515	 -1.621948
C	 1.182643	 -2.229815	 -0.586987
H	 1.900479	 -4.137212	 -1.284016
H	 2.093335	 -2.835326	 -2.448520
C	 1.630207	 -0.772146	 -0.501001
H	 0.205421	 -2.300077	 -1.047778
H	 1.084671	 -2.632597	 0.418233
C	 2.907848	 -0.545876	 0.309149
H	 0.825914	 -0.176646	 -0.076183
H	 1.788220	 -0.395595	 -1.507899
C	 3.373802	 0.906639	 0.372125
H	 3.699140	 -1.146831	 -0.127906
H	 2.764321	 -0.923458	 1.318191
H	 3.519798	 1.311927	 -0.623875
H	 4.316899	 0.983758	 0.900700
H	 2.661122	 1.540651	 0.885346
H	 4.657572	 -2.274247	 -2.622648
H	 5.374136	 -1.767398	 -1.088371
H	 3.928644	 -0.964159	 -1.727761
