13

H	 2.053512	 -0.837855	 -2.281856
C	 1.328469	 -1.034721	 -1.502860
C	 1.322304	 0.099773	 -0.484271
H	 0.358267	 -1.147237	 -1.973410
H	 1.588166	 -1.979571	 -1.039009
C	 0.308557	 -0.162619	 0.622645
H	 1.077043	 1.035947	 -0.970232
H	 2.304764	 0.208938	 -0.041785
N	 -1.069352	 -0.004081	 0.085342
H	 0.371632	 -1.172932	 0.991288
H	 0.400391	 0.548875	 1.426218
O	 -1.584901	 -0.965470	 -0.377818
O	 -1.548033	 1.079343	 0.130056
