15

H	 -1.158543	 1.678034	 1.736074
C	 -0.929288	 0.937385	 0.999314
C	 -1.911766	 0.470053	 0.068997
C	 0.296666	 0.414370	 0.918536
H	 -2.907338	 0.870681	 0.107620
C	 -1.598714	 -0.456617	 -0.841969
H	 1.085452	 0.713397	 1.580005
N	 0.640204	 -0.530428	 -0.000115
H	 -2.307193	 -0.829172	 -1.552759
C	 -0.261012	 -1.024522	 -0.927213
C	 2.006991	 -1.033007	 -0.000020
O	 0.058493	 -1.857817	 -1.730817
H	 2.182444	 -1.636914	 -0.880881
H	 2.678769	 -0.195442	 -0.002236
H	 2.183828	 -1.633244	 0.883082
