27

H	 0.372786	 -3.063731	 -4.270100
O	 1.311417	 -3.054546	 -4.296892
C	 1.799065	 -1.830421	 -3.814203
C	 1.658666	 -1.673376	 -2.307448
H	 2.845903	 -1.802073	 -4.084955
H	 1.312159	 -1.000761	 -4.323160
C	 0.214485	 -1.611354	 -1.815164
H	 2.174607	 -2.497936	 -1.824682
H	 2.177171	 -0.762872	 -2.016704
C	 0.002166	 -0.548163	 -0.738417
H	 -0.073763	 -2.582205	 -1.426107
H	 -0.444219	 -1.403199	 -2.656631
C	 -1.442728	 -0.391376	 -0.260971
H	 0.639468	 -0.771095	 0.113858
H	 0.341043	 0.408388	 -1.126542
C	 -2.412990	 0.157180	 -1.305681
H	 -1.800985	 -1.363561	 0.066192
H	 -1.462201	 0.248138	 0.618687
C	 -3.857606	 0.201434	 -0.814218
H	 -2.359068	 -0.457392	 -2.201706
H	 -2.114212	 1.157433	 -1.604393
C	 -4.828437	 0.752130	 -1.853503
H	 -4.169012	 -0.798643	 -0.525340
H	 -3.911772	 0.808154	 0.085793
H	 -4.821471	 0.147728	 -2.754552
H	 -5.843709	 0.767297	 -1.473900
H	 -4.566250	 1.766462	 -2.135887
