19

H	 0.626684	 4.742065	 -0.318851
N	 -0.162902	 4.138051	 -0.404515
C	 0.211865	 2.750803	 -0.179677
H	 -0.530915	 4.263116	 -1.324446
C	 -1.008660	 1.843838	 -0.229283
H	 0.666275	 2.685500	 0.803254
H	 0.955218	 2.391295	 -0.892512
C	 -0.678115	 0.376691	 0.025731
H	 -1.730249	 2.195929	 0.500613
H	 -1.483815	 1.941645	 -1.203523
C	 -1.900706	 -0.535531	 -0.022488
H	 -0.199513	 0.279668	 0.997575
H	 0.050138	 0.035458	 -0.706443
C	 -3.220513	 0.226854	 0.028039
H	 -1.865036	 -1.134397	 -0.928236
H	 -1.857948	 -1.236381	 0.806820
H	 -3.309098	 0.911849	 -0.808725
H	 -4.066838	 -0.449485	 -0.008086
H	 -3.301685	 0.809374	 0.939860
