20

O	 1.134918	 1.199635	 0.496105
C	 1.121787	 0.124983	 0.000110
C	 -0.055836	 -0.500617	 -0.702237
O	 2.167739	 -0.685178	 -0.000678
C	 -1.292723	 0.385408	 -0.733775
H	 0.268743	 -0.758291	 -1.705099
H	 -0.260672	 -1.444016	 -0.206755
C	 -2.464483	 -0.277619	 -1.451885
H	 -1.048605	 1.324060	 -1.218420
H	 -1.578945	 0.637180	 0.281228
C	 -3.708816	 0.602706	 -1.491309
H	 -2.170586	 -0.530546	 -2.467214
H	 -2.704350	 -1.217638	 -0.961920
H	 -3.510325	 1.536682	 -2.005967
H	 -4.523510	 0.107174	 -2.006477
H	 -4.048048	 0.844508	 -0.489793
C	 3.449556	 -0.089977	 -0.000570
H	 3.585694	 0.522473	 -0.879546
H	 4.155805	 -0.904274	 -0.001389
H	 3.586173	 0.521118	 0.879272
