12

H	 -2.644180	 -0.653737	 1.272255
C	 -2.092774	 -0.380414	 0.391915
O	 -0.808934	 -0.154049	 0.752536
F	 -2.163230	 -1.351640	 -0.507133
F	 -2.627232	 0.691260	 -0.169301
C	 -0.532695	 0.100112	 2.078581
C	 -1.186019	 -1.007222	 2.902144
Cl	 -1.165197	 1.681268	 2.573988
H	 0.522386	 0.095819	 2.289366
F	 -0.947634	 -0.831438	 4.177014
F	 -0.671261	 -2.161528	 2.550126
F	 -2.476926	 -1.062572	 2.721181
