22

H	 -3.268214	 -0.875720	 0.463107
C	 -2.806015	 0.000007	 0.024886
N	 -1.391133	 0.000016	 0.301321
H	 -3.029448	 0.000055	 -1.045738
H	 -3.268126	 0.875758	 0.463150
C	 -1.073131	 -0.669108	 1.544190
C	 -0.825046	 1.331303	 0.273909
H	 -1.536950	 -0.166205	 2.397894
H	 -1.463279	 -1.679347	 1.508332
C	 0.428223	 -0.720123	 1.757138
H	 -1.034075	 1.781445	 -0.689299
H	 -1.271950	 1.970571	 1.041021
C	 0.676308	 1.280289	 0.486857
H	 0.637252	 -1.170264	 2.720346
H	 0.875126	 -1.359391	 0.990026
N	 0.994310	 0.611165	 1.729726
H	 1.066456	 2.290528	 0.522715
H	 1.140127	 0.777386	 -0.366847
C	 2.409192	 0.611174	 2.006161
H	 2.597208	 0.157693	 2.971339
H	 2.779527	 1.628241	 2.037571
H	 2.988170	 0.063709	 1.257012
