20

O	 1.371313	 1.045657	 0.700935
C	 1.121787	 0.124983	 0.000110
C	 -0.170912	 -0.649867	 -0.000147
O	 1.969101	 -0.353489	 -0.896273
C	 -1.413045	 0.229353	 0.001137
H	 -0.152877	 -1.303435	 -0.866175
H	 -0.152278	 -1.305116	 0.864586
C	 -1.522075	 1.083190	 -1.258777
H	 -1.399008	 0.867781	 0.877352
H	 -2.293881	 -0.395239	 0.098898
C	 -2.762366	 1.970040	 -1.266902
H	 -0.635212	 1.704341	 -1.353046
H	 -1.535522	 0.438043	 -2.133329
H	 -2.761031	 2.651124	 -0.422682
H	 -2.813588	 2.564221	 -2.171889
H	 -3.667866	 1.375675	 -1.208758
C	 3.226978	 0.281687	 -1.004047
H	 3.107866	 1.319775	 -1.276836
H	 3.762124	 -0.246898	 -1.776112
H	 3.765395	 0.222432	 -0.069799
