20

O	 1.371313	 1.045657	 0.700935
C	 1.121787	 0.124983	 0.000110
C	 -0.170912	 -0.649867	 -0.000147
O	 1.969101	 -0.353489	 -0.896273
C	 -1.413045	 0.229353	 0.001137
H	 -0.152877	 -1.303435	 -0.866175
H	 -0.152278	 -1.305116	 0.864586
C	 -1.327734	 1.354408	 1.028406
H	 -2.285327	 -0.383391	 0.199151
H	 -1.557697	 0.646407	 -0.989159
C	 -2.568556	 2.240480	 1.039763
H	 -1.179479	 0.930495	 2.018133
H	 -0.451785	 1.964792	 0.824986
H	 -3.457412	 1.664822	 1.274580
H	 -2.480234	 3.029405	 1.777647
H	 -2.724384	 2.706723	 0.072853
C	 3.226978	 0.281687	 -1.004047
H	 3.107866	 1.319775	 -1.276836
H	 3.762124	 -0.246898	 -1.776112
H	 3.765395	 0.222432	 -0.069799
