22

O	 -1.624308	 -2.461821	 -0.642326
C	 -1.033968	 -1.673282	 -1.306507
C	 -0.834872	 -0.246597	 -0.834300
C	 -0.436475	 -2.051539	 -2.640933
C	 0.376695	 -0.140025	 0.100361
H	 -1.730371	 0.050869	 -0.303539
H	 -0.705201	 0.416149	 -1.683310
C	 1.630207	 -0.772146	 -0.501001
H	 0.546736	 0.906882	 0.317846
H	 0.152516	 -0.624374	 1.047699
C	 2.907848	 -0.545876	 0.309149
H	 1.772784	 -0.391628	 -1.509394
H	 1.468529	 -1.842059	 -0.599744
C	 3.373802	 0.906639	 0.372125
H	 3.699140	 -1.146831	 -0.127906
H	 2.764321	 -0.923458	 1.318191
H	 3.519798	 1.311927	 -0.623875
H	 4.316899	 0.983758	 0.900700
H	 2.661122	 1.540651	 0.885346
H	 -0.970050	 -1.532392	 -3.430732
H	 -0.513339	 -3.116957	 -2.794385
H	 0.600849	 -1.741195	 -2.697814
