25

O	 2.277506	 2.276513	 -1.675799
C	 1.942731	 1.580404	 -2.584708
C	 0.656051	 0.775050	 -2.556446
C	 2.788166	 1.455099	 -3.835585
C	 -0.152375	 0.939550	 -1.272849
H	 0.063716	 1.062883	 -3.424017
H	 0.913933	 -0.270853	 -2.717649
C	 -1.440286	 0.114338	 -1.281295
H	 -0.387723	 1.989850	 -1.132810
H	 0.463313	 0.654410	 -0.425635
C	 -2.259874	 0.272531	 0.000494
H	 -2.051336	 0.402934	 -2.135330
H	 -1.197107	 -0.937635	 -1.423721
C	 -3.549786	 -0.549746	 -0.000374
H	 -2.504141	 1.323673	 0.143508
H	 -1.650316	 -0.016514	 0.854829
C	 -4.809590	 0.315458	 -0.000369
H	 -3.560515	 -1.202009	 -0.871156
H	 -3.561123	 -1.202955	 0.869711
H	 -4.844746	 0.956611	 -0.876632
H	 -5.706986	 -0.295590	 -0.001609
H	 -4.845960	 0.954827	 0.877144
H	 2.221388	 1.764967	 -4.708720
H	 3.671930	 2.070726	 -3.741780
H	 3.081626	 0.421193	 -3.992280
