25

H	 -7.897889	 5.390075	 -1.485559
C	 -6.852273	 5.456773	 -1.155221
C	 -5.894766	 5.989464	 -2.186392
O	 -6.553522	 5.112651	 -0.064517
C	 -4.615874	 5.153871	 -2.295464
H	 -6.411343	 6.054138	 -3.135233
H	 -5.636158	 6.999765	 -1.877009
C	 -4.845490	 3.752690	 -2.857736
H	 -3.912229	 5.684903	 -2.927309
H	 -4.148023	 5.082594	 -1.316572
C	 -5.641798	 2.853761	 -1.915610
H	 -3.883524	 3.293239	 -3.069002
H	 -5.362192	 3.818987	 -3.811702
C	 -6.900381	 3.527547	 -1.372262
H	 -5.905577	 1.940709	 -2.440111
H	 -5.008207	 2.556040	 -1.083009
C	 -7.827821	 4.111512	 -2.439380
H	 -6.614724	 4.314215	 -0.677756
H	 -7.459838	 2.800038	 -0.790848
C	 -7.244121	 5.287623	 -3.218572
H	 -8.743922	 4.435874	 -1.955707
H	 -8.114795	 3.326049	 -3.133643
H	 -6.941812	 6.086551	 -2.549005
H	 -6.377675	 4.999038	 -3.801388
H	 -7.976863	 5.694192	 -3.906144
