25

H	 -1.673141	 3.098569	 1.017933
C	 -1.963588	 2.156241	 0.533634
C	 -2.232967	 2.259525	 -0.943072
O	 -2.053273	 1.165910	 1.172781
C	 -3.524744	 1.550768	 -1.360983
H	 -2.244875	 3.306067	 -1.218647
H	 -1.389682	 1.791037	 -1.445759
C	 -4.789956	 2.214817	 -0.822038
H	 -3.565658	 1.523356	 -2.444457
H	 -3.488481	 0.514391	 -1.034180
C	 -5.641798	 2.853761	 -1.915610
H	 -4.510717	 2.970879	 -0.092996
H	 -5.387848	 1.484585	 -0.282859
C	 -6.900381	 3.527547	 -1.372262
H	 -5.037082	 3.575553	 -2.455684
H	 -5.927719	 2.092630	 -2.638262
C	 -7.827821	 4.111512	 -2.439380
H	 -6.614724	 4.314215	 -0.677756
H	 -7.459838	 2.800038	 -0.790848
C	 -7.244121	 5.287623	 -3.218572
H	 -8.743922	 4.435874	 -1.955707
H	 -8.114795	 3.326049	 -3.133643
H	 -6.941812	 6.086551	 -2.549005
H	 -6.377675	 4.999038	 -3.801388
H	 -7.976863	 5.694192	 -3.906144
