16

O	 -1.510770	 1.240811	 -0.054933
C	 -1.081510	 0.147522	 0.122720
C	 0.327029	 -0.064006	 0.641890
C	 -1.903028	 -1.084121	 -0.174656
C	 1.349460	 -0.017068	 -0.500215
H	 0.399029	 -1.014606	 1.159950
H	 0.538021	 0.726928	 1.350471
C	 2.327929	 -1.185054	 -0.453834
H	 0.832408	 -0.018487	 -1.455460
H	 1.891328	 0.919542	 -0.441342
H	 3.045170	 -1.121769	 -1.263519
H	 1.811258	 -2.134825	 -0.541797
H	 2.880371	 -1.193368	 0.479231
H	 -1.341891	 -1.779207	 -0.789259
H	 -2.820449	 -0.808163	 -0.671328
H	 -2.133314	 -1.593056	 0.755831
