24

H	 -3.436473	 1.252944	 -1.023892
O	 -3.458596	 0.315260	 -0.960865
C	 -3.176635	 -0.080824	 0.355601
C	 -1.763371	 0.265266	 0.799691
H	 -3.321825	 -1.153438	 0.379502
H	 -3.895468	 0.357385	 1.043382
C	 -0.673390	 -0.426948	 -0.013392
H	 -1.631049	 1.344913	 0.747560
H	 -1.664587	 -0.001624	 1.849167
C	 0.737842	 -0.043159	 0.423759
H	 -0.806103	 -0.190518	 -1.063345
H	 -0.797221	 -1.503753	 0.074146
C	 1.824000	 -0.743224	 -0.390623
H	 0.850588	 1.033777	 0.343840
H	 0.868587	 -0.286314	 1.476203
C	 2.329861	 0.044364	 -1.600440
H	 1.455156	 -1.710919	 -0.722845
H	 2.667645	 -0.949939	 0.262180
C	 1.297628	 0.247416	 -2.706970
H	 3.185927	 -0.478236	 -2.016150
H	 2.698176	 1.012024	 -1.269687
H	 0.906795	 -0.703929	 -3.053769
H	 1.740899	 0.751199	 -3.558413
H	 0.459281	 0.847826	 -2.374873
