27

H	 0.372786	 -3.063731	 -4.270100
O	 1.311417	 -3.054546	 -4.296892
C	 1.799065	 -1.830421	 -3.814203
C	 1.658666	 -1.673376	 -2.307448
H	 2.845903	 -1.802073	 -4.084955
H	 1.312159	 -1.000761	 -4.323160
C	 0.214485	 -1.611354	 -1.815164
H	 2.174607	 -2.497936	 -1.824682
H	 2.177171	 -0.762872	 -2.016704
C	 -0.568072	 -2.888734	 -2.116397
H	 -0.284930	 -0.764864	 -2.274557
H	 0.207438	 -1.433771	 -0.741059
C	 -2.000450	 -2.910904	 -1.579690
H	 -0.585113	 -3.051745	 -3.191276
H	 -0.029471	 -3.731465	 -1.691918
C	 -2.120064	 -2.933959	 -0.056895
H	 -2.518122	 -2.031780	 -1.953435
H	 -2.525508	 -3.768400	 -1.994623
C	 -3.564729	 -2.854971	 0.430048
H	 -1.556814	 -2.101307	 0.358927
H	 -1.665907	 -3.836858	 0.339991
C	 -3.688002	 -2.881542	 1.949914
H	 -4.022968	 -1.946973	 0.047774
H	 -4.130867	 -3.681413	 0.008687
H	 -3.158688	 -2.048242	 2.400108
H	 -4.724581	 -2.821302	 2.261331
H	 -3.272323	 -3.795732	 2.360791
