22

O	 4.827694	 -0.233197	 -2.219271
C	 3.788362	 0.336235	 -2.135801
C	 2.542473	 -0.208238	 -2.806143
C	 3.647719	 1.615877	 -1.346178
C	 1.861984	 -1.265595	 -1.927638
H	 2.844237	 -0.655390	 -3.744815
H	 1.847472	 0.596970	 -3.019403
C	 1.630207	 -0.772146	 -0.501001
H	 0.922852	 -1.539339	 -2.391667
H	 2.471339	 -2.165688	 -1.899006
C	 2.907848	 -0.545876	 0.309149
H	 0.994258	 -1.481516	 0.022775
H	 1.076036	 0.161635	 -0.540386
C	 3.373802	 0.906639	 0.372125
H	 3.699140	 -1.146831	 -0.127906
H	 2.764321	 -0.923458	 1.318191
H	 3.519798	 1.311927	 -0.623875
H	 4.316899	 0.983758	 0.900700
H	 2.661122	 1.540651	 0.885346
H	 3.446598	 2.435740	 -2.028361
H	 4.555848	 1.817128	 -0.799032
H	 2.807733	 1.554157	 -0.663387
