24

H	 -3.436473	 1.252944	 -1.023892
O	 -3.458596	 0.315260	 -0.960865
C	 -3.176635	 -0.080824	 0.355601
C	 -1.763371	 0.265266	 0.799691
H	 -3.321825	 -1.153438	 0.379502
H	 -3.895468	 0.357385	 1.043382
C	 -0.673390	 -0.426948	 -0.013392
H	 -1.631049	 1.344913	 0.747560
H	 -1.664587	 -0.001624	 1.849167
C	 -1.199103	 -1.083350	 -1.287258
H	 -0.184853	 -1.171869	 0.604942
H	 0.090745	 0.301969	 -0.272780
C	 -2.108852	 -0.163181	 -2.098857
H	 -0.356139	 -1.400362	 -1.893727
H	 -1.745877	 -1.987710	 -1.028360
C	 -3.439482	 0.181762	 -1.427824
H	 -2.304157	 -0.616277	 -3.068089
H	 -1.575502	 0.761791	 -2.300312
C	 -4.391440	 -0.999117	 -1.253336
H	 -3.935948	 0.942813	 -2.022044
H	 -3.245543	 0.634110	 -0.458706
H	 -4.599114	 -1.475517	 -2.206222
H	 -5.336972	 -0.672176	 -0.835820
H	 -3.986209	 -1.752435	 -0.588576
