17

O	 0.749854	 1.307668	 -0.000040
C	 0.576249	 0.131685	 -0.000108
C	 -0.766779	 -0.556801	 -0.000461
O	 1.568443	 -0.749345	 -0.000005
C	 -1.945214	 0.412366	 0.000161
H	 -0.796911	 -1.211249	 -0.867467
H	 -0.796854	 -1.212390	 0.865687
C	 -1.666755	 1.653461	 0.846749
H	 -2.828055	 -0.097736	 0.370282
H	 -2.169889	 0.703339	 -1.020344
H	 -1.469386	 1.390130	 1.882198
H	 -2.516005	 2.328759	 0.834537
H	 -0.804659	 2.200677	 0.475507
C	 2.886820	 -0.232538	 0.000322
H	 3.059106	 0.369571	 -0.880203
H	 3.540187	 -1.091012	 0.000050
H	 3.059019	 0.368956	 0.881266
