20

O	 0.827457	 -0.456073	 0.988445
C	 1.121787	 0.124983	 0.000110
C	 0.600187	 1.478937	 -0.407572
O	 1.969101	 -0.353489	 -0.896273
C	 0.626609	 2.509075	 0.712267
H	 1.189646	 1.807084	 -1.257477
H	 -0.406857	 1.334380	 -0.784968
C	 2.005605	 2.635744	 1.353074
H	 -0.104834	 2.238217	 1.465372
H	 0.313341	 3.470789	 0.321735
C	 2.042862	 3.664009	 2.478318
H	 2.315490	 1.668345	 1.739534
H	 2.734214	 2.907105	 0.593648
H	 1.349313	 3.401861	 3.270059
H	 3.032792	 3.732509	 2.914235
H	 1.771210	 4.649614	 2.115870
C	 3.226978	 0.281687	 -1.004047
H	 3.107866	 1.319775	 -1.276836
H	 3.762124	 -0.246898	 -1.776112
H	 3.765395	 0.222432	 -0.069799
