9

H	 -2.123894	 -0.667238	 -0.609809
O	 -2.041679	 -0.058866	 0.103463
C	 -0.959304	 0.780994	 -0.094939
C	 0.354905	 0.037902	 -0.006215
H	 -0.985899	 1.279578	 -1.057596
H	 -0.969809	 1.529522	 0.682889
F	 1.339982	 0.856003	 0.319552
F	 0.290620	 -0.896075	 0.919610
F	 0.682706	 -0.539210	 -1.137347
