17

H   0.000068   2.878743    0.000017
C   0.000050   1.804802    0.000009
C   1.189632   1.108194    -0.000035
C   -1.189576   1.108253    0.000033
H   2.131056   1.620564    -0.000056
C   1.142336   -0.276707    -0.000049
H   -2.130973   1.620676    0.000060
C   -1.142370   -0.276637    0.000010
N   -0.000021   -0.938298    -0.000029
C   2.395749   -1.108438    0.000006
C   -2.395785   -1.108293    0.000035
H   2.414407   -1.749426    -0.872551
H   3.285021   -0.492757    -0.000702
H   2.415079   -1.748292    0.873391
H   -2.414902   -1.748691    -0.872963
H   -3.285059   -0.492590    0.000073
H   -2.414848   -1.748720    0.873013
