22

H	 4.600978	 0.379382	 0.374254
C	 3.749437	 -0.281929	 0.250577
C	 2.441352	 0.506955	 0.211346
H	 3.897854	 -0.841806	 -0.668519
H	 3.759653	 -0.990384	 1.074127
C	 1.217350	 -0.386724	 0.039429
H	 2.461432	 1.225898	 -0.601738
H	 2.339828	 1.081453	 1.130605
N	 0.000003	 0.397874	 -0.023260
H	 1.306073	 -0.940980	 -0.891104
H	 1.192141	 -1.131669	 0.841800
C	 -1.217365	 -0.386708	 0.039277
H	 -0.000031	 1.072115	 0.718656
C	 -2.452633	 0.504241	 -0.042481
H	 -1.215291	 -1.074557	 -0.802042
H	 -1.269739	 -1.003477	 0.942735
C	 -3.758029	 -0.289423	 -0.010781
H	 -2.394220	 1.093569	 -0.952170
H	 -2.440793	 1.210787	 0.785871
H	 -3.816659	 -0.981993	 -0.845726
H	 -4.617837	 0.370165	 -0.069296
H	 -3.847478	 -0.867502	 0.904682
