28

H	 5.269878	 0.195679	 1.068175
C	 4.673900	 -0.208485	 0.258034
C	 3.190199	 -0.204714	 0.610086
H	 4.865136	 0.391893	 -0.624684
H	 5.027838	 -1.214511	 0.056939
C	 2.319208	 -0.778154	 -0.505491
H	 2.876954	 0.809861	 0.827925
H	 3.035335	 -0.782733	 1.518235
C	 0.899434	 -0.220800	 -0.527514
H	 2.787006	 -0.589312	 -1.463788
H	 2.260066	 -1.856509	 -0.389577
C	 0.790737	 1.220250	 -0.996605
H	 0.284045	 -0.806345	 -1.205893
H	 0.430531	 -0.312432	 0.447807
C	 -0.491918	 1.964093	 -0.679018
O	 1.664769	 1.745212	 -1.607963
C	 -1.733741	 1.367340	 -1.349932
H	 -0.351662	 2.988056	 -0.997872
H	 -0.630082	 1.964902	 0.398993
C	 -2.990285	 2.193379	 -1.088351
H	 -1.563758	 1.302064	 -2.421119
H	 -1.896643	 0.353303	 -0.998945
C	 -4.232513	 1.614416	 -1.756781
H	 -2.830352	 3.208186	 -1.440005
H	 -3.155886	 2.263862	 -0.016819
H	 -4.108562	 1.560794	 -2.833091
H	 -4.439825	 0.611735	 -1.398015
H	 -5.105118	 2.224378	 -1.554745
