17

O	 0.625848	 1.349995	 -0.000749
C	 0.486307	 0.169203	 0.000779
C	 1.608116	 -0.841643	 0.000302
O	 -0.698257	 -0.426125	 0.001050
C	 2.990107	 -0.200498	 -0.000684
H	 1.468623	 -1.481519	 -0.865924
H	 1.469683	 -1.481289	 0.866878
H	 3.129736	 0.423364	 -0.875135
H	 3.757882	 -0.966877	 -0.001197
H	 3.130964	 0.423383	 0.873533
C	 -0.718990	 -1.849842	 0.000857
C	 -2.169868	 -2.282577	 0.003147
H	 -0.193024	 -2.210165	 0.874419
H	 -0.195703	 -2.209998	 -0.874385
H	 -2.681266	 -1.909414	 0.883136
H	 -2.232240	 -3.365978	 0.003193
H	 -2.684047	 -1.909342	 -0.875245
