16

O	 -2.081319	 -0.951530	 -0.502732
N	 -1.613558	 0.006676	 0.014756
C	 -0.329345	 -0.171618	 0.743966
O	 -2.068523	 1.100482	 -0.024385
C	 0.835904	 0.041968	 -0.213982
H	 -0.346048	 -1.174374	 1.137184
H	 -0.333613	 0.555559	 1.538590
C	 1.839054	 1.047182	 0.345840
H	 1.324114	 -0.909120	 -0.391861
H	 0.450387	 0.393117	 -1.164145
C	 3.012844	 1.284871	 -0.597664
H	 2.210438	 0.691917	 1.302553
H	 1.335410	 1.989408	 0.540671
H	 3.556294	 0.365410	 -0.784616
H	 2.674480	 1.670406	 -1.552959
H	 3.707906	 2.001698	 -0.177889
