25

O	 2.865883	 1.357220	 0.134683
C	 2.837193	 0.172311	 0.207327
C	 1.538775	 -0.608669	 0.203762
C	 4.107242	 -0.641855	 0.308980
C	 0.286398	 0.250444	 0.102237
H	 1.586447	 -1.319240	 -0.618360
H	 1.518539	 -1.214316	 1.106972
C	 -0.995117	 -0.578309	 0.102325
H	 0.338078	 0.848956	 -0.800108
H	 0.270212	 0.954074	 0.926722
C	 -2.258482	 0.271340	 0.000669
H	 -0.970805	 -1.283347	 -0.725688
H	 -1.039185	 -1.177420	 1.009180
C	 -3.544441	 -0.550271	 -0.000253
H	 -2.215471	 0.870396	 -0.905640
H	 -2.284089	 0.975889	 0.828366
C	 -4.804551	 0.308747	 0.000556
H	 -3.553737	 -1.201524	 -0.870151
H	 -3.553831	 -1.203282	 0.868313
H	 -4.842050	 0.949078	 -0.874436
H	 -5.698404	 -0.304480	 -0.000254
H	 -4.842277	 0.947103	 0.876982
H	 4.172745	 -1.337918	 -0.520028
H	 4.964145	 0.013929	 0.301439
H	 4.103782	 -1.227507	 1.221691
