25

H	 -1.032815	 0.511958	 4.319665
C	 -1.649663	 -0.193360	 3.746158
C	 -2.097417	 0.306377	 2.399432
O	 -1.921093	 -1.249040	 4.203511
C	 -0.938574	 0.831260	 1.546638
H	 -2.633787	 -0.488686	 1.897918
H	 -2.798793	 1.116516	 2.586649
C	 0.038849	 -0.255920	 1.105202
H	 -1.351413	 1.321587	 0.671719
H	 -0.404449	 1.600206	 2.099472
C	 1.181757	 0.280428	 0.247371
H	 -0.503744	 -1.016630	 0.550206
H	 0.450282	 -0.757249	 1.977452
C	 2.151032	 -0.811012	 -0.202643
H	 0.764584	 0.787056	 -0.617290
H	 1.728690	 1.034405	 0.809226
C	 3.580021	 -0.656538	 0.320835
H	 2.170545	 -0.847575	 -1.289412
H	 1.766632	 -1.772905	 0.124928
C	 4.327657	 0.562694	 -0.213579
H	 4.138806	 -1.549270	 0.057813
H	 3.561991	 -0.620783	 1.406976
H	 4.355973	 0.557257	 -1.298551
H	 3.867136	 1.491650	 0.100501
H	 5.351524	 0.571613	 0.142204
