17

H	 -2.734220	 -1.165326	 1.979659
O	 -2.233160	 -1.297758	 1.189015
C	 -1.163626	 -0.508292	 1.231131
C	 -0.310616	 -0.658853	 0.000791
O	 -0.949364	 0.212414	 2.143625
C	 0.926581	 0.227233	 0.000178
H	 -0.945144	 -0.451468	 -0.854834
H	 -0.044739	 -1.708150	 -0.076691
C	 2.220156	 -0.582071	 -0.000088
H	 0.899945	 0.878221	 -0.866390
H	 0.900542	 0.878581	 0.866486
C	 3.466689	 0.296012	 -0.000457
H	 2.239073	 -1.234095	 -0.869382
H	 2.239505	 -1.233985	 0.869270
H	 3.493549	 0.935857	 -0.875887
H	 4.368821	 -0.304526	 -0.001199
H	 3.494559	 0.935166	 0.875458
