24

H	 -3.436473	 1.252944	 -1.023892
O	 -3.458596	 0.315260	 -0.960865
C	 -3.176635	 -0.080824	 0.355601
C	 -1.763371	 0.265266	 0.799691
H	 -3.321825	 -1.153438	 0.379502
H	 -3.895468	 0.357385	 1.043382
C	 -0.673390	 -0.426948	 -0.013392
H	 -1.631049	 1.344913	 0.747560
H	 -1.664587	 -0.001624	 1.849167
C	 -0.829034	 -0.228597	 -1.518850
H	 -0.674869	 -1.486772	 0.216140
H	 0.296333	 -0.048699	 0.301361
C	 -1.080200	 1.227927	 -1.904207
H	 0.063652	 -0.595174	 -2.016467
H	 -1.652905	 -0.840421	 -1.880463
C	 -2.421804	 1.795257	 -1.437212
H	 -1.005030	 1.330941	 -2.984294
H	 -0.284583	 1.839022	 -1.486862
C	 -3.646051	 1.161778	 -2.093769
H	 -2.432222	 2.861823	 -1.639957
H	 -2.498339	 1.692252	 -0.357882
H	 -3.594271	 1.244411	 -3.174772
H	 -4.554980	 1.655420	 -1.769105
H	 -3.741203	 0.111276	 -1.846793
