22

H	 2.118140	 -3.379204	 1.545493
C	 2.290065	 -2.484968	 0.958219
C	 1.019487	 -1.649691	 0.845997
H	 3.086112	 -1.924430	 1.436909
H	 2.646452	 -2.795272	 -0.018365
C	 1.215950	 -0.382441	 0.027187
H	 0.666306	 -1.373616	 1.833322
H	 0.233492	 -2.249380	 0.393048
N	 0.000002	 0.398953	 -0.040851
H	 1.983328	 0.229206	 0.492147
H	 1.592479	 -0.647179	 -0.965397
C	 -1.215959	 -0.382435	 0.027143
H	 -0.000012	 1.086078	 0.683841
C	 -2.451944	 0.502410	 -0.038737
H	 -1.221867	 -1.069392	 -0.813828
H	 -1.259993	 -0.999709	 0.929424
C	 -3.752217	 -0.292550	 0.005776
H	 -2.407325	 1.093801	 -0.946480
H	 -2.431979	 1.206234	 0.790023
H	 -3.817783	 -0.982946	 -0.828547
H	 -4.612613	 0.364348	 -0.042306
H	 -3.830160	 -0.871666	 0.919868
