17

O	 1.614899	 -0.388702	 0.216882
C	 0.576499	 0.134701	 -0.003900
C	 -0.765656	 -0.550508	 -0.002152
O	 0.459615	 1.419447	 -0.296711
C	 -1.945526	 0.411052	 0.000603
H	 -0.794329	 -1.203792	 -0.868145
H	 -0.791555	 -1.205429	 0.862701
C	 -3.282915	 -0.321280	 0.002596
H	 -1.880300	 1.059126	 -0.864925
H	 -1.877207	 1.057892	 0.866807
H	 -3.388495	 -0.952755	 -0.873419
H	 -4.107811	 0.380864	 0.004116
H	 -3.385717	 -0.953283	 0.878571
C	 1.646382	 2.186181	 -0.338129
H	 2.140953	 2.174951	 0.621729
H	 1.343097	 3.189541	 -0.589083
H	 2.322255	 1.802222	 -1.087671
