27

H	 2.614283	 2.028610	 0.296620
O	 3.358864	 1.662087	 -0.142800
C	 3.565468	 0.338079	 0.273842
C	 4.885363	 -0.248989	 -0.203561
H	 3.550556	 0.362942	 1.355110
H	 2.738616	 -0.293546	 -0.045243
C	 4.986799	 -0.414692	 -1.718191
H	 5.693213	 0.384665	 0.150018
H	 5.012069	 -1.217869	 0.273528
C	 6.311498	 -1.036907	 -2.157347
H	 4.866995	 0.553093	 -2.193629
H	 4.166296	 -1.038982	 -2.067939
C	 6.437878	 -1.294454	 -3.659996
H	 7.130273	 -0.399502	 -1.832463
H	 6.438887	 -1.981269	 -1.635407
C	 6.491747	 -0.039118	 -4.528887
H	 7.341710	 -1.872431	 -3.831918
H	 5.612227	 -1.922718	 -3.986707
C	 6.717706	 -0.345207	 -6.007286
H	 7.289377	 0.608985	 -4.172211
H	 5.570807	 0.526727	 -4.425486
C	 6.768268	 0.905733	 -6.878196
H	 7.644715	 -0.900450	 -6.121029
H	 5.926268	 -0.999511	 -6.363061
H	 7.571004	 1.566453	 -6.567869
H	 6.932291	 0.653319	 -7.919585
H	 5.840060	 1.464223	 -6.815988
