15

H	 -3.401682	 -1.036167	 0.000000
O	 -3.113760	 -0.140926	 0.000000
C	 -1.775087	 -0.058754	 0.000000
C	 -1.050970	 0.190495	 -1.159295
C	 -1.123158	 -0.232414	 1.209551
H	 -1.563876	 0.324118	 -2.093907
C	 0.320533	 0.264754	 -1.103099
H	 -1.700403	 -0.423690	 2.091719
C	 0.250704	 -0.155015	 1.248793
H	 0.890652	 0.456500	 -1.990402
C	 0.988522	 0.092977	 0.101374
H	 0.757516	 -0.289583	 2.186637
C	 2.459665	 0.171518	 0.167955
O	 3.172150	 0.378661	 -0.757038
H	 2.881778	 0.020865	 1.167418
