27

H	 2.614283	 2.028610	 0.296620
O	 3.358864	 1.662087	 -0.142800
C	 3.565468	 0.338079	 0.273842
C	 2.533667	 -0.637565	 -0.272227
H	 4.548038	 0.064914	 -0.086598
H	 3.593945	 0.282242	 1.360360
C	 1.114816	 -0.402372	 0.240993
H	 2.544552	 -0.580764	 -1.356576
H	 2.850574	 -1.642962	 -0.005497
C	 0.113298	 -1.420414	 -0.302504
H	 0.796373	 0.598427	 -0.031033
H	 1.113377	 -0.446476	 1.328807
C	 -1.190988	 -0.823476	 -0.834255
H	 0.587692	 -2.003309	 -1.088259
H	 -0.128895	 -2.123053	 0.490031
C	 -1.045856	 0.028561	 -2.093902
H	 -1.877512	 -1.638584	 -1.045944
H	 -1.659458	 -0.231080	 -0.051467
C	 -2.384125	 0.518424	 -2.641151
H	 -0.536623	 -0.550768	 -2.861058
H	 -0.414231	 0.888529	 -1.892636
C	 -2.242593	 1.372546	 -3.896673
H	 -3.017934	 -0.337142	 -2.857650
H	 -2.897949	 1.090297	 -1.873031
H	 -1.760737	 0.817894	 -4.695055
H	 -3.209762	 1.700939	 -4.259782
H	 -1.644647	 2.257117	 -3.703420
