19

O	 -2.071633	 -1.227563	 -0.223463
C	 -1.652164	 -0.152425	 0.058082
C	 -0.327811	 0.006324	 0.778296
C	 -2.402515	 1.108629	 -0.298924
C	 -0.115522	 1.456267	 1.229986
H	 -0.285169	 -0.656133	 1.636467
H	 0.456399	 -0.278334	 0.088496
C	 0.087026	 2.414199	 0.059700
H	 0.745279	 1.513252	 1.891398
H	 -0.975587	 1.767763	 1.812758
C	 0.286002	 3.859385	 0.503557
H	 0.945795	 2.093915	 -0.523789
H	 -0.771906	 2.354557	 -0.602280
H	 1.159378	 3.957408	 1.139670
H	 -0.571341	 4.217990	 1.062784
H	 0.422870	 4.514600	 -0.348711
H	 -3.240910	 0.874416	 -0.936711
H	 -1.747554	 1.818823	 -0.790984
H	 -2.760419	 1.579708	 0.610998
