19

H	 2.358993	 -1.904770	 0.609727
N	 1.378483	 -1.727532	 0.619506
C	 0.839444	 -1.756665	 -0.725273
C	 1.091931	 -0.470565	 1.281142
H	 1.052012	 -2.720649	 -1.171258
H	 1.277565	 -0.987392	 -1.363935
C	 -0.662525	 -1.544114	 -0.670635
H	 1.487456	 -0.502610	 2.289054
H	 1.546003	 0.379965	 0.769247
C	 -0.410369	 -0.259698	 1.333152
H	 -1.124047	 -2.396930	 -0.164382
H	 -1.059236	 -1.506660	 -1.678274
N	 -0.976577	 -0.298712	 -0.000000
H	 -0.624757	 0.706469	 1.774376
H	 -0.854520	 -1.024029	 1.977449
C	 -2.391156	 -0.021003	 -0.000000
H	 -2.853954	 -0.458728	 -0.875714
H	 -2.853954	 -0.458728	 0.875714
H	 -2.614037	 1.049773	 -0.000000
