27

H	 6.830139	 -7.991321	 -3.594019
O	 6.919685	 -7.395448	 -2.873778
C	 7.556133	 -6.217560	 -3.294236
C	 6.697140	 -5.357464	 -4.209141
H	 7.786124	 -5.667722	 -2.391594
H	 8.502069	 -6.449888	 -3.779705
C	 5.269907	 -5.142826	 -3.710357
H	 7.186941	 -4.397286	 -4.340710
H	 6.668851	 -5.834012	 -5.186126
C	 4.437215	 -6.423837	 -3.732123
H	 4.786551	 -4.387286	 -4.320709
H	 5.298310	 -4.753201	 -2.694152
C	 3.020187	 -6.283153	 -3.173110
H	 4.385210	 -6.798432	 -4.751535
H	 4.958885	 -7.184199	 -3.157511
C	 2.941773	 -5.995610	 -1.674806
H	 2.522034	 -5.477785	 -3.705795
H	 2.455627	 -7.185778	 -3.396035
C	 3.399728	 -7.171755	 -0.816103
H	 1.917507	 -5.739337	 -1.412753
H	 3.545134	 -5.126993	 -1.428917
C	 4.730105	 -7.763686	 -1.269544
H	 3.483187	 -6.849655	 0.218239
H	 2.637265	 -7.945993	 -0.832431
H	 5.521022	 -7.021792	 -1.233760
H	 5.026793	 -8.593361	 -0.638100
H	 4.668760	 -8.130040	 -2.289041
