24

H	 -3.420663	 1.227371	 -1.044276
O	 -3.452007	 0.283848	 -0.965577
C	 -3.181085	 -0.079926	 0.364119
C	 -1.765924	 0.277073	 0.805136
H	 -3.327791	 -1.152017	 0.410903
H	 -3.905698	 0.375695	 1.036898
C	 -0.677594	 -0.417312	 -0.014550
H	 -1.637766	 1.358238	 0.744969
H	 -1.659588	 0.017670	 1.857098
C	 -0.301939	 -1.796120	 0.532214
H	 0.203254	 0.216531	 -0.047095
H	 -1.019048	 -0.518061	 -1.043458
C	 0.783759	 -2.487448	 -0.296886
H	 0.028723	 -1.689829	 1.562643
H	 -1.188401	 -2.428599	 0.559759
C	 1.131636	 -3.909083	 0.159286
H	 1.685774	 -1.877537	 -0.288293
H	 0.456366	 -2.528450	 -1.333684
C	 1.781690	 -3.992171	 1.541651
H	 1.807547	 -4.348879	 -0.570107
H	 0.232062	 -4.521284	 0.145885
H	 2.677822	 -3.379085	 1.588669
H	 2.069003	 -5.013610	 1.771760
H	 1.111225	 -3.658884	 2.326865
