19

O	 -2.071633	 -1.227563	 -0.223463
C	 -1.652164	 -0.152425	 0.058082
C	 -0.327811	 0.006324	 0.778296
C	 -2.402515	 1.108629	 -0.298924
C	 0.739363	 0.595168	 -0.152203
H	 -0.447703	 0.642208	 1.649159
H	 -0.017179	 -0.975189	 1.112927
C	 1.142208	 -0.364291	 -1.268170
H	 1.621422	 0.864163	 0.423391
H	 0.356627	 1.514857	 -0.581215
C	 2.194209	 0.221846	 -2.203532
H	 1.518954	 -1.285722	 -0.832795
H	 0.260073	 -0.635015	 -1.840958
H	 3.102618	 0.470598	 -1.665062
H	 1.833618	 1.127847	 -2.678406
H	 2.455977	 -0.480461	 -2.986248
H	 -3.240910	 0.874416	 -0.936711
H	 -1.747554	 1.818823	 -0.790984
H	 -2.760419	 1.579708	 0.610998
