20

H	 0.559871	 -3.346639	 -0.734483
O	 0.921754	 -2.606501	 -0.270875
C	 0.116995	 -1.562917	 -0.451782
C	 0.626018	 -0.337582	 0.258241
O	 -0.869001	 -1.635093	 -1.100198
C	 -0.267326	 0.883135	 0.076490
H	 0.741926	 -0.606795	 1.301289
H	 1.628560	 -0.149021	 -0.112955
C	 -1.726822	 0.642622	 0.463839
H	 -0.210803	 1.217591	 -0.953497
H	 0.129920	 1.693110	 0.675679
C	 -2.006266	 0.637493	 1.965813
H	 -2.030065	 -0.315841	 0.053173
H	 -2.356906	 1.388241	 -0.016257
C	 -3.454507	 0.289286	 2.294182
H	 -1.345701	 -0.077689	 2.448726
H	 -1.772522	 1.607082	 2.393850
H	 -3.625538	 0.290397	 3.364429
H	 -3.715146	 -0.694246	 1.918108
H	 -4.138982	 1.003941	 1.849302
