19

O	 -2.071633	 -1.227563	 -0.223463
C	 -1.652164	 -0.152425	 0.058082
C	 -0.327811	 0.006324	 0.778296
C	 -2.402515	 1.108629	 -0.298924
C	 0.843231	 -0.001575	 -0.211665
H	 -0.319484	 0.928173	 1.350354
H	 -0.227804	 -0.823091	 1.466705
C	 0.418439	 0.368829	 -1.629615
H	 1.308531	 -0.983947	 -0.223253
H	 1.597761	 0.694878	 0.137623
C	 1.582009	 0.374553	 -2.615128
H	 -0.341548	 -0.328164	 -1.971879
H	 -0.049067	 1.349041	 -1.616871
H	 2.048780	 -0.602903	 -2.676273
H	 2.344095	 1.085911	 -2.315857
H	 1.249648	 0.644751	 -3.610583
H	 -3.240910	 0.874416	 -0.936711
H	 -1.747554	 1.818823	 -0.790984
H	 -2.760419	 1.579708	 0.610998
