12

H	 -2.644180	 -0.653737	 1.272255
C	 -2.092774	 -0.380414	 0.391915
O	 -0.808934	 -0.154049	 0.752536
F	 -2.163230	 -1.351640	 -0.507133
F	 -2.627232	 0.691260	 -0.169301
C	 0.085006	 0.250800	 -0.215074
C	 1.152327	 1.097676	 0.474059
Cl	 -0.722425	 1.198512	 -1.478179
H	 0.574628	 -0.576717	 -0.697913
F	 2.045069	 1.503804	 -0.392597
F	 1.765567	 0.363815	 1.372224
F	 0.646116	 2.140057	 1.073594
