16

H	 -0.000342	 -0.223902	 -3.352295
C	 -0.027146	 0.371068	 -2.446756
C	 0.024493	 -0.518541	 -1.216015
H	 -0.932586	 0.964979	 -2.449855
H	 0.819708	 1.049865	 -2.473332
N	 -0.042516	 0.263377	 -0.000000
H	 -0.822211	 -1.197105	 -1.225584
H	 0.921114	 -1.142847	 -1.255206
C	 0.024493	 -0.518541	 1.216015
H	 0.682568	 0.950412	 -0.000000
C	 -0.339626	 -1.970998	 0.957987
H	 1.039730	 -0.462985	 1.595032
H	 -0.620765	 -0.115181	 2.000978
H	 0.319487	 -2.402869	 0.215276
H	 -0.263890	 -2.553719	 1.868706
H	 -1.358741	 -2.059067	 0.594281
