25

H	 2.250135	 4.672987	 1.298799
C	 2.511024	 4.131537	 2.218393
C	 1.413414	 3.268028	 2.778300
O	 3.584142	 4.261213	 2.696838
C	 0.819937	 2.314403	 1.737119
H	 1.799996	 2.732359	 3.635591
H	 0.635798	 3.943153	 3.128763
C	 1.790664	 1.229261	 1.276318
H	 -0.063997	 1.850703	 2.161363
H	 0.477614	 2.886953	 0.878518
C	 1.181757	 0.280428	 0.247371
H	 2.123105	 0.660444	 2.140631
H	 2.682937	 1.687305	 0.857424
C	 2.151032	 -0.811012	 -0.202643
H	 0.286846	 -0.167226	 0.668185
H	 0.859021	 0.851522	 -0.620379
C	 3.580021	 -0.656538	 0.320835
H	 2.170545	 -0.847575	 -1.289412
H	 1.766632	 -1.772905	 0.124928
C	 4.327657	 0.562694	 -0.213579
H	 4.138806	 -1.549270	 0.057813
H	 3.561991	 -0.620783	 1.406976
H	 4.355973	 0.557257	 -1.298551
H	 3.867136	 1.491650	 0.100501
H	 5.351524	 0.571613	 0.142204
