16

H	 1.000583	 -2.447585	 1.022331
C	 1.036375	 -1.515789	 1.602096
C	 -0.204505	 -0.669893	 1.528103
O	 2.005836	 -1.240914	 2.220339
C	 -0.554654	 -0.292621	 0.086567
H	 -0.057132	 0.209557	 2.141036
H	 -1.019314	 -1.249085	 1.957639
C	 -1.846385	 0.513195	 -0.016346
H	 0.263161	 0.280276	 -0.341109
H	 -0.645639	 -1.194685	 -0.513162
C	 -3.089953	 -0.365049	 -0.098564
H	 -1.798267	 1.154820	 -0.891143
H	 -1.925398	 1.173265	 0.842889
H	 -3.055079	 -1.012299	 -0.968245
H	 -3.988403	 0.236438	 -0.170014
H	 -3.183055	 -0.995885	 0.779079
