16

O	 -2.081319	 -0.951530	 -0.502732
N	 -1.613558	 0.006676	 0.014756
C	 -0.329345	 -0.171618	 0.743966
O	 -2.068523	 1.100482	 -0.024385
C	 0.835904	 0.041968	 -0.213982
H	 -0.346048	 -1.174374	 1.137184
H	 -0.333613	 0.555559	 1.538590
C	 2.177039	 -0.130175	 0.494460
H	 0.754456	 -0.665923	 -1.030569
H	 0.765464	 1.037260	 -0.637266
C	 2.173753	 -1.302099	 1.469684
H	 2.423438	 0.783237	 1.027754
H	 2.959312	 -0.277005	 -0.244389
H	 1.423231	 -1.166909	 2.240488
H	 1.960828	 -2.234711	 0.959179
H	 3.135730	 -1.402738	 1.957161
