22

H	 1.576880	 -4.135771	 -3.529156
C	 1.499269	 -3.631619	 -2.573167
C	 0.291385	 -2.701804	 -2.539818
H	 1.428410	 -4.393279	 -1.803823
H	 2.422823	 -3.085518	 -2.412423
C	 0.144482	 -1.971457	 -1.213175
H	 -0.616726	 -3.263241	 -2.729260
H	 0.376690	 -1.972224	 -3.341699
N	 -1.022553	 -1.116065	 -1.204982
H	 0.034293	 -2.698527	 -0.414178
H	 1.063757	 -1.417425	 -1.000887
C	 -1.215959	 -0.382435	 0.027143
H	 -0.979043	 -0.479286	 -1.973057
C	 -2.451944	 0.502410	 -0.038737
H	 -1.332780	 -1.101767	 0.832185
H	 -0.345911	 0.229084	 0.284315
C	 -3.752217	 -0.292550	 0.005776
H	 -2.407325	 1.093801	 -0.946480
H	 -2.431979	 1.206234	 0.790023
H	 -3.817783	 -0.982946	 -0.828547
H	 -4.612613	 0.364348	 -0.042306
H	 -3.830160	 -0.871666	 0.919868
