11

H	 -1.835082	 1.385983	 0.000069
C	 -1.300516	 0.441153	 -0.000028
O	 -0.006604	 0.654344	 -0.000106
O	 -1.828920	 -0.612308	 0.000113
C	 0.445098	 1.987719	 0.218754
C	 1.954565	 1.976545	 0.173062
H	 0.077283	 2.328334	 1.176174
H	 0.027389	 2.627824	 -0.545280
H	 2.358697	 1.328878	 0.940640
H	 2.331353	 2.979119	 0.336554
H	 2.308557	 1.629845	 -0.789465
