21

H	 -3.358846	 2.238431	 -1.386428
O	 -2.650448	 1.655357	 -1.619027
C	 -1.858099	 1.400079	 -0.487830
C	 -0.734986	 0.463567	 -0.896866
H	 -1.445238	 2.327068	 -0.092175
H	 -2.453750	 0.945023	 0.302401
C	 0.198102	 0.111031	 0.262842
H	 -0.173423	 0.933397	 -1.699757
H	 -1.176085	 -0.438849	 -1.311058
C	 1.331804	 -0.827780	 -0.158768
H	 0.611128	 1.026179	 0.680080
H	 -0.375320	 -0.358739	 1.060978
C	 2.723619	 -0.410569	 0.329459
H	 1.342964	 -0.912588	 -1.244120
H	 1.116806	 -1.824343	 0.220779
C	 3.243875	 0.895854	 -0.272975
H	 3.424222	 -1.207124	 0.091250
H	 2.714788	 -0.329854	 1.414619
H	 3.251977	 0.848779	 -1.358681
H	 2.637085	 1.747371	 0.016682
H	 4.259473	 1.094070	 0.055697
