22

O	 -1.702403	 -1.430456	 -1.889230
C	 -0.852309	 -0.614491	 -2.040796
C	 -0.564136	 0.422065	 -0.972827
C	 -0.004263	 -0.577092	 -3.289871
C	 0.376695	 -0.140025	 0.100361
H	 -1.508276	 0.697339	 -0.520129
H	 -0.127359	 1.309680	 -1.418057
C	 1.630207	 -0.772146	 -0.501001
H	 0.643342	 0.664931	 0.773542
H	 -0.148062	 -0.884346	 0.694428
C	 2.907848	 -0.545876	 0.309149
H	 1.772784	 -0.391628	 -1.509394
H	 1.468529	 -1.842059	 -0.599744
C	 3.373802	 0.906639	 0.372125
H	 3.699140	 -1.146831	 -0.127906
H	 2.764321	 -0.923458	 1.318191
H	 3.519798	 1.311927	 -0.623875
H	 4.316899	 0.983758	 0.900700
H	 2.661122	 1.540651	 0.885346
H	 -0.238285	 0.320625	 -3.853198
H	 -0.200632	 -1.445968	 -3.899019
H	 1.048916	 -0.530538	 -3.036420
