28

H	 5.269878	 0.195679	 1.068175
C	 4.673900	 -0.208485	 0.258034
C	 3.190199	 -0.204714	 0.610086
H	 4.865136	 0.391893	 -0.624684
H	 5.027838	 -1.214511	 0.056939
C	 2.319208	 -0.778154	 -0.505491
H	 2.876954	 0.809861	 0.827925
H	 3.035335	 -0.782733	 1.518235
C	 2.382966	 0.014937	 -1.806963
H	 2.610353	 -1.802535	 -0.702233
H	 1.286006	 -0.801765	 -0.171247
C	 3.689674	 -0.121969	 -2.570020
H	 1.601683	 -0.322894	 -2.483153
H	 2.183997	 1.067976	 -1.630789
C	 3.988193	 0.913483	 -3.636836
O	 4.444787	 -1.015656	 -2.359303
C	 2.992841	 0.903835	 -4.801973
H	 4.988046	 0.716118	 -3.999025
H	 3.988374	 1.895521	 -3.171221
C	 3.375199	 1.890087	 -5.902327
H	 2.942388	 -0.097959	 -5.219656
H	 1.996320	 1.141435	 -4.443514
C	 2.396623	 1.885256	 -7.071724
H	 4.371454	 1.653567	 -6.263722
H	 3.432010	 2.890645	 -5.482529
H	 2.341995	 0.904547	 -7.532057
H	 1.396704	 2.153958	 -6.747657
H	 2.697304	 2.592495	 -7.835738
