22

H	 3.262348	 -1.935101	 -2.318295
C	 2.953222	 -1.651321	 -1.319287
C	 1.685894	 -0.804498	 -1.357005
H	 2.798533	 -2.562447	 -0.750992
H	 3.775229	 -1.112075	 -0.860445
C	 1.215950	 -0.382441	 0.027187
H	 0.885987	 -1.351880	 -1.843099
H	 1.863936	 0.082930	 -1.959790
N	 0.000002	 0.398953	 -0.040851
H	 1.013964	 -1.267901	 0.622445
H	 2.022884	 0.153316	 0.536015
C	 -1.215959	 -0.382435	 0.027143
H	 -0.000012	 1.086078	 0.683841
C	 -2.451944	 0.502410	 -0.038737
H	 -1.221867	 -1.069392	 -0.813828
H	 -1.259993	 -0.999709	 0.929424
C	 -3.752217	 -0.292550	 0.005776
H	 -2.407325	 1.093801	 -0.946480
H	 -2.431979	 1.206234	 0.790023
H	 -3.817783	 -0.982946	 -0.828547
H	 -4.612613	 0.364348	 -0.042306
H	 -3.830160	 -0.871666	 0.919868
