14

O	 -0.694481	 1.313155	 -0.204815
C	 -0.862519	 0.151932	 -0.046791
C	 -2.171428	 -0.477048	 0.339095
O	 0.085519	 -0.757083	 -0.192238
H	 -2.467997	 -1.191667	 -0.417688
H	 -2.923379	 0.287970	 0.444097
H	 -2.053854	 -1.015120	 1.270901
C	 1.392036	 -0.330828	 -0.560749
C	 2.427161	 -1.403785	 -0.293957
H	 1.630810	 0.579545	 -0.033470
H	 1.322514	 -0.117645	 -1.616907
H	 3.396000	 -1.069716	 -0.647796
H	 2.505063	 -1.611045	 0.764512
H	 2.172005	 -2.319330	 -0.813829
