19

H	 2.753606	 0.105174	 -0.000000
N	 1.779424	 0.314646	 -0.000000
C	 1.145578	 -0.197413	 1.198281
C	 1.145578	 -0.197413	 -1.198281
H	 1.631452	 0.230757	 2.066583
H	 1.219378	 -1.283894	 1.273989
C	 -0.322048	 0.190075	 1.196711
H	 1.631452	 0.230757	 -2.066583
H	 1.219378	 -1.283894	 -1.273989
C	 -0.322048	 0.190075	 -1.196711
H	 -0.402590	 1.277874	 1.279154
H	 -0.810877	 -0.241696	 2.062008
N	 -0.976554	 -0.298710	 -0.000000
H	 -0.810877	 -0.241696	 -2.062008
H	 -0.402590	 1.277874	 -1.279154
C	 -2.391133	 -0.021001	 -0.000000
H	 -2.853931	 -0.458726	 -0.875714
H	 -2.853931	 -0.458726	 0.875714
H	 -2.614014	 1.049775	 -0.000000
