14

H	 2.690516	 -0.599055	 -0.996807
O	 1.917682	 -0.970130	 -0.598353
C	 0.952633	 -0.055327	 -0.619263
C	 -0.318151	 -0.570512	 0.000144
O	 1.116123	 1.021555	 -1.079224
C	 -1.454884	 0.441630	 -0.000560
H	 -0.593358	 -1.472459	 -0.537111
H	 -0.075898	 -0.890197	 1.008615
C	 -2.822577	 -0.232186	 0.000063
H	 -1.359760	 1.084704	 -0.867077
H	 -1.359641	 1.085996	 0.864983
H	 -2.954352	 -0.858985	 -0.875745
H	 -3.615886	 0.505352	 0.000019
H	 -2.953878	 -0.858359	 0.876394
