9

H	 -2.123894	 -0.667238	 -0.609809
O	 -2.041679	 -0.058866	 0.103463
C	 -0.959304	 0.780994	 -0.094939
C	 0.354905	 0.037902	 -0.006215
H	 -0.985899	 1.279578	 -1.057596
H	 -0.969809	 1.529522	 0.682889
F	 0.155607	 -1.258866	 0.150198
F	 1.049377	 0.203204	 -1.112552
F	 1.094792	 0.444477	 0.997397
