28

H	 5.269878	 0.195679	 1.068175
C	 4.673900	 -0.208485	 0.258034
C	 3.190199	 -0.204714	 0.610086
H	 4.865136	 0.391893	 -0.624684
H	 5.027838	 -1.214511	 0.056939
C	 2.319208	 -0.778154	 -0.505491
H	 2.876954	 0.809861	 0.827925
H	 3.035335	 -0.782733	 1.518235
C	 0.821762	 -0.618818	 -0.262278
H	 2.576070	 -0.305084	 -1.445201
H	 2.535777	 -1.836882	 -0.614929
C	 0.304012	 0.802765	 -0.401992
H	 0.265977	 -1.214625	 -0.981918
H	 0.543421	 -1.003045	 0.714664
C	 -1.053931	 1.114329	 0.196580
O	 0.924215	 1.639351	 -0.975357
C	 -2.206858	 0.341953	 -0.453464
H	 -1.210962	 2.179028	 0.088894
H	 -1.021124	 0.886330	 1.258718
C	 -3.567828	 0.748313	 0.105374
H	 -2.192819	 0.515966	 -1.525900
H	 -2.068969	 -0.725023	 -0.310109
C	 -4.724977	 -0.007744	 -0.538449
H	 -3.708851	 1.815358	 -0.038158
H	 -3.578844	 0.580327	 1.178795
H	 -4.758645	 0.166138	 -1.608642
H	 -4.631187	 -1.077010	 -0.380543
H	 -5.675576	 0.305253	 -0.122870
