23

O	 -2.817697	 1.304178	 0.001046
C	 -2.664672	 0.129869	 0.003507
C	 -3.797908	 -0.860100	 -0.001145
O	 -1.481217	 -0.452708	 0.001092
H	 -4.408836	 -0.679689	 -0.875387
H	 -3.443486	 -1.878443	 -0.002770
H	 -4.412123	 -0.683688	 0.871605
C	 -0.332055	 0.384012	 -0.000250
C	 0.892252	 -0.506059	 -0.000295
H	 -0.360822	 1.020205	 -0.874146
H	 -0.359817	 1.021310	 0.872861
C	 2.188199	 0.299473	 -0.001416
H	 0.857046	 -1.152781	 -0.871031
H	 0.857910	 -1.151798	 0.871202
C	 3.289687	 -0.341522	 -0.841043
H	 1.991967	 1.301472	 -0.374872
H	 2.541577	 0.419100	 1.019753
C	 4.585267	 0.462520	 -0.841469
H	 2.938381	 -0.459979	 -1.862125
H	 3.486766	 -1.342819	 -0.468684
H	 4.427593	 1.458702	 -1.240976
H	 5.345321	 -0.019103	 -1.445509
H	 4.980054	 0.569297	 0.163317
