25

O	 1.801690	 3.020937	 1.847537
C	 1.203928	 2.725701	 2.830200
C	 -0.070998	 1.907995	 2.788337
C	 1.681259	 3.150849	 4.200466
C	 -0.515428	 1.503992	 1.389734
H	 0.082250	 1.030558	 3.412587
H	 -0.846349	 2.484682	 3.287607
C	 -1.802019	 0.683175	 1.397223
H	 0.278545	 0.940213	 0.913420
H	 -0.650741	 2.395676	 0.788298
C	 -2.258482	 0.271340	 0.000669
H	 -1.659678	 -0.208208	 2.004222
H	 -2.593284	 1.254031	 1.878143
C	 -3.544441	 -0.550271	 -0.000253
H	 -1.468286	 -0.299551	 -0.480775
H	 -2.401795	 1.161729	 -0.606617
C	 -4.804551	 0.308747	 0.000556
H	 -3.553737	 -1.201524	 -0.870151
H	 -3.553831	 -1.203282	 0.868313
H	 -4.842050	 0.949078	 -0.874436
H	 -5.698404	 -0.304480	 -0.000254
H	 -4.842277	 0.947103	 0.876982
H	 1.857464	 2.279891	 4.822103
H	 2.591750	 3.722850	 4.109851
H	 0.921795	 3.748942	 4.691933
