25

O	 2.868453	 1.353349	 -0.000734
C	 2.841259	 0.166180	 -0.000295
C	 1.542794	 -0.614730	 -0.000853
C	 4.113372	 -0.651103	 0.000743
C	 0.288398	 0.247429	 0.000314
H	 1.557171	 -1.273139	 -0.866508
H	 1.557484	 -1.274998	 0.863344
C	 -0.993089	 -0.581367	 -0.000217
H	 0.305153	 0.900562	 -0.864701
H	 0.305567	 0.898805	 0.866656
C	 -2.258482	 0.271340	 0.000669
H	 -1.002280	 -1.233920	 -0.870484
H	 -1.002061	 -1.235367	 0.868958
C	 -2.684419	 0.727424	 -1.391919
H	 -2.102547	 1.143317	 0.631108
H	 -3.069334	 -0.291129	 0.457041
C	 -3.949510	 1.579040	 -1.382881
H	 -1.874958	 1.290753	 -1.848397
H	 -2.841751	 -0.143572	 -2.022421
H	 -3.812943	 2.476154	 -0.788258
H	 -4.224039	 1.885915	 -2.385619
H	 -4.786923	 1.031160	 -0.963820
H	 4.145311	 -1.294584	 -0.871587
H	 4.970080	 0.004978	 -0.000091
H	 4.145223	 -1.291980	 0.874988
