14

O	 -0.694481	 1.313155	 -0.204815
C	 -0.862519	 0.151932	 -0.046791
C	 -2.171428	 -0.477048	 0.339095
O	 0.085519	 -0.757083	 -0.192238
H	 -2.467997	 -1.191667	 -0.417688
H	 -2.923379	 0.287970	 0.444097
H	 -2.053854	 -1.015120	 1.270901
C	 1.432991	 -0.390789	 0.080942
C	 1.761134	 -0.521199	 1.553767
H	 1.605633	 0.615203	 -0.268330
H	 2.026886	 -1.074117	 -0.507363
H	 2.810291	 -0.299107	 1.713131
H	 1.174277	 0.169867	 2.143181
H	 1.570113	 -1.529598	 1.900516
