12

H	 -1.088256	 -1.364742	 0.152233
O	 -1.432053	 -0.565244	 -0.200812
C	 -0.727158	 0.534527	 0.310686
C	 0.680222	 0.664433	 -0.252229
H	 -1.306802	 1.408001	 0.044211
H	 -0.690821	 0.490158	 1.397609
C	 0.730408	 0.772103	 -1.773391
H	 1.152187	 1.534265	 0.192599
H	 1.250275	 -0.203633	 0.067381
H	 0.221440	 1.662200	 -2.126668
H	 1.753524	 0.828660	 -2.124941
H	 0.267653	 -0.089866	 -2.244372
