27

H	 2.614283	 2.028610	 0.296620
O	 3.358864	 1.662087	 -0.142800
C	 3.565468	 0.338079	 0.273842
C	 4.597479	 -0.406161	 -0.560271
H	 3.905520	 0.400597	 1.298750
H	 2.624745	 -0.209150	 0.279419
C	 4.184740	 -0.632598	 -2.012931
H	 5.531733	 0.146325	 -0.527305
H	 4.781651	 -1.366588	 -0.084815
C	 5.230440	 -1.411001	 -2.810074
H	 4.007497	 0.326038	 -2.488961
H	 3.240699	 -1.174264	 -2.038856
C	 4.836513	 -1.731014	 -4.253219
H	 6.165987	 -0.856949	 -2.807974
H	 5.432130	 -2.345647	 -2.294101
C	 4.721486	 -0.518989	 -5.175989
H	 5.577238	 -2.410268	 -4.666096
H	 3.894753	 -2.275292	 -4.255459
C	 4.424629	 -0.897357	 -6.624824
H	 5.648476	 0.049079	 -5.137797
H	 3.941240	 0.147800	 -4.821572
C	 4.305425	 0.310599	 -7.548147
H	 5.208209	 -1.554628	 -6.991669
H	 3.503182	 -1.472235	 -6.663729
H	 5.223316	 0.889087	 -7.556238
H	 4.097459	 0.006981	 -8.567791
H	 3.504253	 0.969502	 -7.229838
