24

H	 -3.436473	 1.252944	 -1.023892
O	 -3.458596	 0.315260	 -0.960865
C	 -3.176635	 -0.080824	 0.355601
C	 -1.763371	 0.265266	 0.799691
H	 -3.321825	 -1.153438	 0.379502
H	 -3.895468	 0.357385	 1.043382
C	 -0.673390	 -0.426948	 -0.013392
H	 -1.631049	 1.344913	 0.747560
H	 -1.664587	 -0.001624	 1.849167
C	 -0.957093	 -0.436894	 -1.513187
H	 -0.554821	 -1.444799	 0.341338
H	 0.275232	 0.071890	 0.170410
C	 0.140008	 -1.126682	 -2.321648
H	 -1.910175	 -0.926745	 -1.688029
H	 -1.070589	 0.586069	 -1.866064
C	 -0.059064	 -1.091762	 -3.837893
H	 0.228437	 -2.160739	 -1.996445
H	 1.090734	 -0.654949	 -2.088822
C	 -1.260891	 -1.886884	 -4.342408
H	 0.837603	 -1.480957	 -4.310430
H	 -0.148225	 -0.058745	 -4.164002
H	 -1.202066	 -2.923516	 -4.026165
H	 -1.302296	 -1.875079	 -5.425639
H	 -2.197322	 -1.482616	 -3.977347
