10

H	 1.019083	 2.538282	 -0.004990
O	 1.279736	 1.791896	 0.504343
C	 0.706474	 0.636793	 -0.025501
C	 -0.793473	 0.591216	 0.050087
H	 1.117205	 -0.194482	 0.535378
H	 1.010719	 0.492507	 -1.060545
C	 -1.534243	 -0.493009	 -0.013340
H	 -1.266611	 1.552628	 0.164437
H	 -1.101195	 -1.466332	 -0.144046
H	 -2.604242	 -0.437780	 0.050785
