15

H	 -1.528165	 2.952932	 2.119516
O	 -1.295161	 2.136214	 1.718596
C	 -0.322206	 2.344474	 0.727635
C	 0.027642	 1.012027	 0.090274
H	 0.575432	 2.775647	 1.163642
H	 -0.686728	 3.042555	 -0.020876
C	 -1.138737	 0.285728	 -0.581921
H	 0.444587	 0.371587	 0.860663
H	 0.818228	 1.186375	 -0.635531
C	 -1.933983	 -0.631436	 0.343653
H	 -0.763151	 -0.285569	 -1.422081
H	 -1.808359	 1.035291	 -0.992333
H	 -2.789188	 -1.049673	 -0.174718
H	 -1.335629	 -1.461368	 0.700418
H	 -2.305435	 -0.092167	 1.209725
