25

H	 -2.459487	 1.903854	 -2.129042
C	 -1.614795	 2.444775	 -2.577132
C	 -0.731871	 3.166167	 -1.595332
O	 -1.462590	 2.437202	 -3.749345
C	 -0.254027	 2.263947	 -0.453693
H	 0.099402	 3.601298	 -2.134759
H	 -1.325546	 3.979350	 -1.183521
C	 0.705859	 1.164230	 -0.902497
H	 0.231290	 2.883425	 0.292668
H	 -1.115634	 1.818678	 0.037797
C	 1.181757	 0.280428	 0.247371
H	 1.564879	 1.619634	 -1.388087
H	 0.228510	 0.544335	 -1.657013
C	 2.151032	 -0.811012	 -0.202643
H	 1.649765	 0.905868	 1.001121
H	 0.320453	 -0.181470	 0.724973
C	 3.580021	 -0.656538	 0.320835
H	 2.170545	 -0.847575	 -1.289412
H	 1.766632	 -1.772905	 0.124928
C	 4.327657	 0.562694	 -0.213579
H	 4.138806	 -1.549270	 0.057813
H	 3.561991	 -0.620783	 1.406976
H	 4.355973	 0.557257	 -1.298551
H	 3.867136	 1.491650	 0.100501
H	 5.351524	 0.571613	 0.142204
