16

O	 -1.510770	 1.240811	 -0.054933
C	 -1.081510	 0.147522	 0.122720
C	 0.327029	 -0.064006	 0.641890
C	 -1.903028	 -1.084121	 -0.174656
C	 1.349460	 -0.017068	 -0.500215
H	 0.399029	 -1.014606	 1.159950
H	 0.538021	 0.726928	 1.350471
C	 0.791963	 0.647877	 -1.753527
H	 2.238201	 0.516049	 -0.175003
H	 1.660376	 -1.029826	 -0.728209
H	 1.529401	 0.657758	 -2.547325
H	 0.501228	 1.674519	 -1.558001
H	 -0.081860	 0.119678	 -2.118643
H	 -1.341891	 -1.779207	 -0.789259
H	 -2.820449	 -0.808163	 -0.671328
H	 -2.133314	 -1.593056	 0.755831
