18

H	 -2.172150	 0.880146	 0.502514
C	 -2.018062	 -0.000025	 -0.114509
O	 -0.774054	 0.001095	 -0.743181
H	 -2.760490	 0.003458	 -0.901350
H	 -2.173624	 -0.884374	 0.496163
C	 -0.035915	 1.206587	 -0.835228
C	 1.238254	 0.794637	 -1.569260
C	 -0.793543	 2.257324	 -1.653238
C	 0.313617	 1.748316	 0.554546
H	 0.992549	 0.385927	 -2.542922
H	 1.762986	 0.030958	 -1.006387
H	 1.901953	 1.642228	 -1.706201
H	 -1.099426	 1.841334	 -2.607395
H	 -0.157777	 3.115965	 -1.843342
H	 -1.678044	 2.616929	 -1.138556
H	 0.785850	 0.974970	 1.151189
H	 1.002342	 2.582655	 0.470464
H	 -0.561900	 2.103507	 1.087408
