23

O	 -0.054396	 0.881905	 -1.399377
C	 0.781622	 1.719742	 -1.387478
C	 2.134232	 1.597760	 -0.733866
O	 0.630629	 2.901797	 -1.962250
C	 2.849913	 0.290905	 -1.044115
H	 2.722110	 2.452809	 -1.051262
H	 1.986752	 1.721248	 0.334049
C	 2.952747	 0.027076	 -2.543395
H	 2.326363	 -0.526511	 -0.561415
H	 3.841012	 0.313418	 -0.605359
C	 1.626981	 -0.394976	 -3.170040
H	 3.316318	 0.921201	 -3.045001
H	 3.696069	 -0.745913	 -2.725599
C	 1.729587	 -0.658196	 -4.668572
H	 0.884059	 0.376792	 -2.989492
H	 1.263719	 -1.288876	 -2.670896
H	 2.057926	 0.228640	 -5.200501
H	 0.772349	 -0.955100	 -5.081219
H	 2.440294	 -1.450468	 -4.879367
C	 1.774850	 3.725117	 -2.063383
H	 2.168391	 3.953019	 -1.083894
H	 1.449161	 4.628457	 -2.553025
H	 2.542901	 3.240436	 -2.647673
