11

H	 -1.835082	 1.385983	 0.000069
C	 -1.300516	 0.441153	 -0.000028
O	 -0.006604	 0.654344	 -0.000106
O	 -1.828920	 -0.612308	 0.000113
C	 0.454358	 1.931595	 0.431135
C	 1.961901	 1.932077	 0.341608
H	 0.114552	 2.102236	 1.442753
H	 0.016815	 2.692126	 -0.199826
H	 2.385955	 1.163455	 0.975145
H	 2.345607	 2.892725	 0.663758
H	 2.287731	 1.756282	 -0.675692
