13

O	 0.395927	 1.296676	 -0.000076
C	 0.503051	 0.114301	 -0.000074
C	 -0.701422	 -0.805636	 -0.000109
C	 1.858118	 -0.556123	 0.000212
C	 -2.035342	 -0.080492	 0.082978
H	 -0.647283	 -1.416341	 -0.897630
H	 -0.584480	 -1.498685	 0.829015
H	 -2.163971	 0.592212	 -0.754370
H	 -2.851618	 -0.792904	 0.078686
H	 -2.100629	 0.509139	 0.987579
H	 1.961106	 -1.191101	 -0.872843
H	 2.636688	 0.191085	 -0.000109
H	 1.961070	 -1.190284	 0.873873
