29

O	 3.252703	 -1.328265	 0.597672
C	 2.574127	 -2.072921	 -0.023620
C	 3.001977	 -2.830314	 -1.254728
O	 1.317782	 -2.342573	 0.292610
C	 4.444730	 -2.559446	 -1.662586
H	 2.826633	 -3.880342	 -1.054106
H	 2.314200	 -2.561093	 -2.050223
C	 5.459134	 -2.801700	 -0.544044
H	 4.530035	 -1.539520	 -2.021118
H	 4.689381	 -3.193218	 -2.506084
C	 5.287078	 -4.118100	 0.212193
H	 5.379581	 -1.982708	 0.164538
H	 6.466285	 -2.749664	 -0.951743
C	 5.124101	 -5.320910	 -0.713266
H	 6.150084	 -4.274950	 0.855225
H	 4.423694	 -4.062358	 0.868696
C	 3.809551	 -5.317702	 -1.488328
H	 5.192355	 -6.235263	 -0.128766
H	 5.953439	 -5.348062	 -1.416349
C	 3.653311	 -6.523248	 -2.409211
H	 2.979913	 -5.290790	 -0.787117
H	 3.741034	 -4.405729	 -2.075241
H	 2.710968	 -6.490032	 -2.943878
H	 3.682077	 -7.451022	 -1.847503
H	 4.449776	 -6.559465	 -3.145106
C	 0.824678	 -3.623490	 -0.043565
H	 -0.139967	 -3.792406	 0.411591
H	 1.544729	 -4.329140	 0.337866
H	 0.731980	 -3.727573	 -1.114467
