25

H	 1.239981	 4.739627	 -1.038575
C	 2.006521	 4.702284	 -0.252504
C	 1.550096	 4.102180	 1.049588
O	 3.090175	 5.125207	 -0.462592
C	 0.888638	 2.732365	 0.871391
H	 2.397165	 4.051945	 1.721367
H	 0.827327	 4.795434	 1.474215
C	 1.852820	 1.641692	 0.409905
H	 0.441531	 2.442072	 1.815935
H	 0.068203	 2.818347	 0.163092
C	 1.181757	 0.280428	 0.247371
H	 2.666025	 1.560805	 1.126328
H	 2.310995	 1.930118	 -0.532599
C	 2.151032	 -0.811012	 -0.202643
H	 0.719040	 0.001860	 1.188986
H	 0.374799	 0.362569	 -0.477453
C	 3.580021	 -0.656538	 0.320835
H	 2.170545	 -0.847575	 -1.289412
H	 1.766632	 -1.772905	 0.124928
C	 4.327657	 0.562694	 -0.213579
H	 4.138806	 -1.549270	 0.057813
H	 3.561991	 -0.620783	 1.406976
H	 4.355973	 0.557257	 -1.298551
H	 3.867136	 1.491650	 0.100501
H	 5.351524	 0.571613	 0.142204
