13

H	 -2.788440	 1.677263	 1.668116
C	 -2.561336	 0.672695	 1.368235
C	 -1.491076	 0.431329	 0.646926
H	 -3.224471	 -0.115734	 1.670795
O	 -1.180634	 -0.819263	 0.215062
H	 -0.810518	 1.205708	 0.339724
C	 0.051604	 -1.018856	 -0.387932
C	 1.043764	 0.054862	 -0.001873
H	 -0.017620	 -1.041351	 -1.469781
H	 0.437898	 -1.966374	 -0.042284
F	 2.212596	 -0.199467	 -0.571921
F	 0.652529	 1.252447	 -0.405055
F	 1.230877	 0.110694	 1.300533
