21

H	 -1.786327	 3.927309	 -0.918625
O	 -1.094491	 3.327810	 -1.159183
C	 -1.056159	 2.260414	 -0.247159
C	 0.061953	 1.320966	 -0.663105
H	 -0.879372	 2.626163	 0.763426
H	 -2.006595	 1.728478	 -0.239751
C	 0.198102	 0.111031	 0.262842
H	 0.991392	 1.883518	 -0.683251
H	 -0.127259	 0.994245	 -1.681893
C	 1.331804	 -0.827780	 -0.158768
H	 0.362740	 0.456578	 1.280519
H	 -0.738699	 -0.444640	 0.275133
C	 2.723619	 -0.410569	 0.329459
H	 1.342964	 -0.912588	 -1.244120
H	 1.116806	 -1.824343	 0.220779
C	 3.243875	 0.895854	 -0.272975
H	 3.424222	 -1.207124	 0.091250
H	 2.714788	 -0.329854	 1.414619
H	 3.251977	 0.848779	 -1.358681
H	 2.637085	 1.747371	 0.016682
H	 4.259473	 1.094070	 0.055697
