22

O	 -0.840323	 -4.518081	 -1.120527
C	 -0.239686	 -3.866308	 -1.911638
C	 0.056406	 -2.401966	 -1.654578
C	 0.275423	 -4.461842	 -3.200347
C	 1.313235	 -2.237787	 -0.790710
H	 -0.796879	 -1.980871	 -1.138152
H	 0.182389	 -1.873090	 -2.593345
C	 1.630207	 -0.772146	 -0.501001
H	 1.164361	 -2.783412	 0.132523
H	 2.163932	 -2.694455	 -1.290778
C	 2.907848	 -0.545876	 0.309149
H	 0.789726	 -0.322082	 0.021506
H	 1.720940	 -0.241522	 -1.444828
C	 3.373802	 0.906639	 0.372125
H	 3.699140	 -1.146831	 -0.127906
H	 2.764321	 -0.923458	 1.318191
H	 3.519798	 1.311927	 -0.623875
H	 4.316899	 0.983758	 0.900700
H	 2.661122	 1.540651	 0.885346
H	 -0.265160	 -4.027410	 -4.035235
H	 0.135019	 -5.531819	 -3.197990
H	 1.324134	 -4.224380	 -3.339652
