13

H	 -2.498963	 -0.741158	 -0.729149
O	 -2.346257	 -0.289210	 0.080372
C	 -1.183935	 0.486039	 -0.009831
C	 0.062853	 -0.375310	 0.027457
H	 -1.178881	 1.094526	 -0.908634
H	 -1.184406	 1.155156	 0.838676
O	 1.137395	 0.392545	 -0.405220
H	 -0.067806	 -1.247226	 -0.615650
H	 0.223776	 -0.738204	 1.040366
C	 2.361466	 -0.265281	 -0.393564
H	 2.351573	 -1.134846	 -1.047041
H	 3.112404	 0.426393	 -0.746219
H	 2.627752	 -0.591270	 0.609104
