11

H	 -1.835082	 1.385983	 0.000069
C	 -1.300516	 0.441153	 -0.000028
O	 -0.006604	 0.654344	 -0.000106
O	 -1.828920	 -0.612308	 0.000113
C	 0.804085	 -0.191440	 -0.810819
C	 2.239480	 0.247017	 -0.643202
H	 0.478426	 -0.107407	 -1.837874
H	 0.660749	 -1.216184	 -0.498860
H	 2.367358	 1.275621	 -0.955600
H	 2.884448	 -0.378341	 -1.248839
H	 2.550593	 0.161296	 0.390157
