28

H	 2.293064	 -1.682932	 -4.434100
C	 2.502722	 -0.762148	 -3.902060
C	 1.315803	 -0.339255	 -3.043159
H	 3.384564	 -0.925897	 -3.292342
H	 2.745863	 -0.002717	 -4.638230
C	 1.571308	 0.962040	 -2.285981
H	 1.085833	 -1.129025	 -2.337245
H	 0.439520	 -0.219128	 -3.676026
C	 0.397743	 1.413538	 -1.422394
H	 2.447689	 0.850687	 -1.659575
H	 1.791434	 1.749968	 -3.000472
C	 0.166485	 0.574257	 -0.177158
H	 0.565453	 2.429769	 -1.074668
H	 -0.520307	 1.448902	 -2.001576
C	 -1.180025	 0.697761	 0.509157
O	 1.011074	 -0.138615	 0.260744
C	 -2.285431	 -0.137488	 -0.145671
H	 -1.447360	 1.745713	 0.496200
H	 -1.065514	 0.394096	 1.546399
C	 -3.646545	 0.082747	 0.508954
H	 -2.348635	 0.118247	 -1.199806
H	 -2.034895	 -1.192387	 -0.096473
C	 -4.757412	 -0.737227	 -0.138149
H	 -3.900211	 1.137405	 0.459735
H	 -3.580878	 -0.166775	 1.564416
H	 -4.867876	 -0.486707	 -1.187777
H	 -4.549650	 -1.800049	 -0.072540
H	 -5.709585	 -0.556397	 0.346597
