21

H	 -4.032636	 0.833330	 -0.952450
O	 -3.395279	 0.150681	 -0.798597
C	 -2.173731	 0.724094	 -0.409226
C	 -1.177863	 -0.397191	 -0.171080
H	 -1.801871	 1.395202	 -1.182299
H	 -2.298508	 1.311141	 0.499700
C	 0.198102	 0.111031	 0.262842
H	 -1.091350	 -0.977554	 -1.085641
H	 -1.586905	 -1.063169	 0.583661
C	 1.331804	 -0.827780	 -0.158768
H	 0.361943	 1.100838	 -0.156218
H	 0.217265	 0.229072	 1.345532
C	 2.723619	 -0.410569	 0.329459
H	 1.342964	 -0.912588	 -1.244120
H	 1.116806	 -1.824343	 0.220779
C	 3.243875	 0.895854	 -0.272975
H	 3.424222	 -1.207124	 0.091250
H	 2.714788	 -0.329854	 1.414619
H	 3.251977	 0.848779	 -1.358681
H	 2.637085	 1.747371	 0.016682
H	 4.259473	 1.094070	 0.055697
