20

O	 0.707562	 2.108937	 -0.196854
C	 -0.355336	 2.460618	 -0.581077
C	 -1.610791	 1.626878	 -0.567847
O	 -0.582133	 3.662936	 -1.084439
C	 -1.413045	 0.229353	 0.001137
H	 -2.356295	 2.178696	 -0.004641
H	 -1.980444	 1.587521	 -1.587292
C	 -2.702562	 -0.586401	 0.000228
H	 -1.027265	 0.305336	 1.011553
H	 -0.651608	 -0.286650	 -0.572884
C	 -3.953810	 0.284959	 -0.000782
H	 -2.717793	 -1.238567	 -0.869075
H	 -2.719108	 -1.238472	 0.869576
H	 -3.983727	 0.924403	 -0.876454
H	 -4.852989	 -0.320147	 -0.001515
H	 -3.985140	 0.924399	 0.874841
C	 0.513052	 4.553240	 -1.156883
H	 0.912707	 4.747054	 -0.172536
H	 0.128803	 5.463246	 -1.588289
H	 1.294897	 4.146055	 -1.780694
