21

H	 -4.210140	 0.168032	 0.910401
O	 -3.493989	 -0.385410	 0.659354
C	 -2.292748	 0.339096	 0.682311
C	 -1.164150	 -0.585362	 0.272714
H	 -2.345172	 1.184829	 -0.000155
H	 -2.105142	 0.733650	 1.678786
C	 0.196029	 0.106276	 0.266738
H	 -1.384964	 -0.981260	 -0.713555
H	 -1.149431	 -1.431768	 0.951902
C	 1.330220	 -0.826136	 -0.155230
H	 0.156373	 0.964120	 -0.397525
H	 0.408310	 0.497127	 1.259590
C	 2.719700	 -0.407669	 0.328325
H	 1.339388	 -0.911200	 -1.239363
H	 1.119001	 -1.821953	 0.224128
C	 3.241564	 0.893452	 -0.276737
H	 3.418299	 -1.204729	 0.093035
H	 2.711776	 -0.323368	 1.411960
H	 3.254204	 0.841071	 -1.360784
H	 2.634460	 1.745075	 0.005842
H	 4.254264	 1.092401	 0.054971
