25

O	 2.455079	 2.365736	 0.923735
C	 2.670347	 1.197956	 0.931497
C	 1.579858	 0.171298	 0.702069
C	 4.060525	 0.654597	 1.173137
C	 0.197200	 0.762109	 0.465365
H	 1.884114	 -0.446890	 -0.139560
H	 1.572103	 -0.495635	 1.561224
C	 -0.867216	 -0.308005	 0.239558
H	 0.236811	 1.428426	 -0.388781
H	 -0.075395	 1.379761	 1.313499
C	 -2.258482	 0.271340	 0.000669
H	 -0.585996	 -0.925092	 -0.610967
H	 -0.899914	 -0.973713	 1.099224
C	 -2.305585	 1.289336	 -1.135201
H	 -2.613929	 0.738836	 0.915665
H	 -2.951619	 -0.538151	 -0.214770
C	 -3.572900	 2.137654	 -1.127623
H	 -1.437227	 1.939525	 -1.070796
H	 -2.226298	 0.769809	 -2.086371
H	 -3.663669	 2.697063	 -0.202494
H	 -3.574663	 2.849112	 -1.945453
H	 -4.458537	 1.518747	 -1.225834
H	 4.379851	 0.054751	 0.327996
H	 4.751578	 1.469899	 1.321870
H	 4.063524	 0.009841	 2.045102
