20

O	 1.425541	 0.927886	 0.815058
C	 1.121787	 0.124983	 0.000110
C	 -0.247769	 -0.482903	 -0.161919
O	 1.969101	 -0.353489	 -0.896273
C	 -1.378468	 0.535127	 -0.129396
H	 -0.244396	 -1.036899	 -1.094957
H	 -0.364145	 -1.224734	 0.621410
C	 -1.171161	 1.666276	 -1.132309
H	 -1.464513	 0.942939	 0.871517
H	 -2.318197	 0.033267	 -0.330868
C	 -2.297593	 2.693592	 -1.106546
H	 -0.226511	 2.163174	 -0.927445
H	 -1.085492	 1.251529	 -2.133249
H	 -2.386072	 3.151689	 -0.127310
H	 -2.124022	 3.483928	 -1.827600
H	 -3.251250	 2.233494	 -1.341978
C	 3.226978	 0.281687	 -1.004047
H	 3.107866	 1.319775	 -1.276836
H	 3.762124	 -0.246898	 -1.776112
H	 3.765395	 0.222432	 -0.069799
