29

O	 3.219313	 0.959291	 -0.614106
C	 2.698710	 0.058177	 -0.050237
C	 1.246364	 -0.005813	 0.348416
O	 3.344101	 -1.038700	 0.312317
C	 0.453207	 1.232821	 -0.049003
H	 0.839270	 -0.907818	 -0.092281
H	 1.216683	 -0.160521	 1.422434
C	 -0.998367	 1.217982	 0.432195
H	 0.481498	 1.345443	 -1.127236
H	 0.951413	 2.105557	 0.354893
C	 -1.882951	 0.151251	 -0.211235
H	 -1.429490	 2.193659	 0.228843
H	 -1.019755	 1.099323	 1.513279
C	 -2.974089	 -0.362699	 0.724211
H	 -2.343063	 0.562702	 -1.106710
H	 -1.277828	 -0.689344	 -0.537981
C	 -3.860332	 -1.433274	 0.093961
H	 -3.593824	 0.471179	 1.045015
H	 -2.515285	 -0.763494	 1.625171
C	 -4.948977	 -1.940346	 1.033912
H	 -4.319638	 -1.034191	 -0.806312
H	 -3.242758	 -2.268683	 -0.224709
H	 -5.559098	 -2.698335	 0.556220
H	 -5.605692	 -1.133991	 1.343144
H	 -4.520279	 -2.377290	 1.929739
C	 4.720529	 -1.114346	 0.001449
H	 4.874321	 -1.055557	 -1.065852
H	 5.057824	 -2.067950	 0.373977
H	 5.264321	 -0.313596	 0.480350
