29

O	 -0.427360	 -1.392182	 -0.665010
C	 0.595354	 -1.297218	 -0.076775
C	 1.246364	 -0.005813	 0.348416
O	 1.317782	 -2.342573	 0.292610
C	 0.453207	 1.232821	 -0.049003
H	 1.394842	 -0.066917	 1.419758
H	 2.239873	 0.009843	 -0.088647
C	 -0.998367	 1.217982	 0.432195
H	 0.481498	 1.345443	 -1.127236
H	 0.951413	 2.105557	 0.354893
C	 -1.800785	 2.477211	 0.108353
H	 -0.993702	 1.078127	 1.509034
H	 -1.507584	 0.350271	 0.018605
C	 -1.661444	 2.915612	 -1.347042
H	 -2.850364	 2.297528	 0.329644
H	 -1.489198	 3.295101	 0.751397
C	 -0.266355	 3.425309	 -1.697342
H	 -2.390226	 3.694372	 -1.558586
H	 -1.911311	 2.081590	 -1.998839
C	 -0.135571	 3.863043	 -3.152355
H	 -0.015355	 4.258844	 -1.047005
H	 0.462971	 2.647121	 -1.489106
H	 0.865570	 4.218619	 -3.367454
H	 -0.828091	 4.665673	 -3.383243
H	 -0.346979	 3.041465	 -3.828759
C	 0.824678	 -3.623490	 -0.043565
H	 -0.139967	 -3.792406	 0.411591
H	 1.544729	 -4.329140	 0.337866
H	 0.731980	 -3.727573	 -1.114467
