27

H	 2.614283	 2.028610	 0.296620
O	 3.358864	 1.662087	 -0.142800
C	 3.565468	 0.338079	 0.273842
C	 2.533667	 -0.637565	 -0.272227
H	 4.548038	 0.064914	 -0.086598
H	 3.593945	 0.282242	 1.360360
C	 1.114816	 -0.402372	 0.240993
H	 2.544552	 -0.580764	 -1.356576
H	 2.850574	 -1.642962	 -0.005497
C	 0.570186	 -1.587426	 1.037148
H	 0.458765	 -0.199221	 -0.598846
H	 1.102064	 0.486007	 0.870204
C	 -0.820673	 -1.377511	 1.638564
H	 0.556590	 -2.468923	 0.400748
H	 1.263214	 -1.808572	 1.844164
C	 -1.954494	 -1.263036	 0.621172
H	 -1.034647	 -2.211182	 2.301689
H	 -0.809552	 -0.489073	 2.266027
C	 -3.331543	 -1.154689	 1.271101
H	 -1.936064	 -2.131049	 -0.034331
H	 -1.799090	 -0.397472	 -0.015736
C	 -4.465546	 -1.036467	 0.258207
H	 -3.500541	 -2.024106	 1.900489
H	 -3.348934	 -0.292801	 1.932848
H	 -4.495153	 -1.899558	 -0.398629
H	 -5.427812	 -0.964212	 0.752100
H	 -4.345967	 -0.154671	 -0.362670
