15

O	 -0.988175	 -1.402891	 0.050086
C	 -0.675048	 -0.248293	 -0.009686
C	 -1.742492	 0.826599	 -0.011538
N	 0.622280	 0.144970	 -0.099307
H	 -1.692153	 1.431066	 -0.908439
H	 -2.698310	 0.331559	 0.031353
H	 -1.642148	 1.483784	 0.843455
C	 1.578981	 -0.379109	 0.852539
C	 1.066650	 1.293796	 -0.851962
H	 2.520490	 -0.568159	 0.351496
H	 1.207005	 -1.296649	 1.270791
H	 1.758159	 0.325177	 1.660939
H	 2.060384	 1.104235	 -1.236925
H	 0.424412	 1.491983	 -1.692882
H	 1.113459	 2.189213	 -0.236267
