20

H	 3.729471	 -0.928294	 -0.070608
O	 2.826016	 -1.159218	 0.122261
C	 2.077727	 -0.067559	 -0.035091
C	 0.624473	 -0.343591	 0.253101
O	 2.542965	 0.974826	 -0.363729
C	 -0.265902	 0.883932	 0.072916
H	 0.324016	 -1.163849	 -0.390541
H	 0.565024	 -0.726111	 1.268924
C	 -1.728698	 0.646073	 0.462102
H	 -0.209144	 1.219470	 -0.958188
H	 0.135059	 1.692851	 0.673903
C	 -1.968787	 0.402068	 1.954676
H	 -2.088920	 -0.217427	 -0.092307
H	 -2.334127	 1.489405	 0.132856
C	 -3.427257	 0.068569	 2.267918
H	 -1.331774	 -0.413424	 2.291176
H	 -1.676241	 1.276611	 2.529978
H	 -3.572894	 -0.098338	 3.330577
H	 -3.745057	 -0.828871	 1.745009
H	 -4.087465	 0.877013	 1.966618
