17

O	 -0.174557	 0.462173	 -0.943240
C	 0.486307	 0.169203	 0.000779
C	 1.608116	 -0.841643	 0.000302
O	 0.318989	 0.702220	 1.203071
C	 2.990107	 -0.200498	 -0.000684
H	 1.468623	 -1.481519	 -0.865924
H	 1.469683	 -1.481289	 0.866878
H	 3.129736	 0.423364	 -0.875135
H	 3.757882	 -0.966877	 -0.001197
H	 3.130964	 0.423383	 0.873533
C	 -0.709431	 1.675357	 1.353923
C	 -0.700519	 2.124663	 2.799729
H	 -1.656926	 1.232461	 1.078819
H	 -0.518318	 2.497985	 0.678387
H	 -0.887940	 1.288454	 3.463646
H	 -1.472820	 2.870055	 2.959704
H	 0.256851	 2.560984	 3.061115
