20

H	 3.721907	 -0.933076	 -0.066039
O	 2.824271	 -1.154299	 0.131461
C	 2.076458	 -0.067370	 -0.038225
C	 0.626018	 -0.337582	 0.258241
O	 2.538288	 0.965419	 -0.381593
C	 -0.267326	 0.883135	 0.076490
H	 0.325620	 -1.161483	 -0.378003
H	 0.574537	 -0.713685	 1.275261
C	 -1.726822	 0.642622	 0.463839
H	 -0.210803	 1.217591	 -0.953497
H	 0.129920	 1.693110	 0.675679
C	 -2.684470	 0.443889	 -0.709811
H	 -2.065346	 1.495327	 1.044830
H	 -1.788789	 -0.217041	 1.127606
C	 -4.138528	 0.313821	 -0.267912
H	 -2.589665	 1.283549	 -1.393198
H	 -2.408145	 -0.441646	 -1.273219
H	 -4.796384	 0.176115	 -1.118173
H	 -4.466281	 1.200390	 0.264320
H	 -4.271541	 -0.535550	 0.393928
