24

H	 -3.436473	 1.252944	 -1.023892
O	 -3.458596	 0.315260	 -0.960865
C	 -3.176635	 -0.080824	 0.355601
C	 -1.763371	 0.265266	 0.799691
H	 -3.321825	 -1.153438	 0.379502
H	 -3.895468	 0.357385	 1.043382
C	 -0.673390	 -0.426948	 -0.013392
H	 -1.631049	 1.344913	 0.747560
H	 -1.664587	 -0.001624	 1.849167
C	 0.737842	 -0.043159	 0.423759
H	 -0.806103	 -0.190518	 -1.063345
H	 -0.797221	 -1.503753	 0.074146
C	 1.457444	 -1.167881	 1.165528
H	 1.310172	 0.249500	 -0.451271
H	 0.691097	 0.834437	 1.065240
C	 0.861708	 -1.524392	 2.528556
H	 2.504369	 -0.901596	 1.291589
H	 1.445517	 -2.057544	 0.541849
C	 0.982899	 -0.428372	 3.584584
H	 1.357850	 -2.417232	 2.896599
H	 -0.184850	 -1.790093	 2.403896
H	 2.018975	 -0.137713	 3.726504
H	 0.603534	 -0.771796	 4.540295
H	 0.424619	 0.459689	 3.313885
