17

O	 -1.276010	 1.052711	 -0.768302
C	 -1.204840	 0.067374	 -0.106123
C	 -2.388195	 -0.672128	 0.458071
O	 -0.067104	 -0.527208	 0.221609
H	 -2.388023	 -1.694060	 0.097175
H	 -3.300579	 -0.174919	 0.164318
H	 -2.315377	 -0.706351	 1.539059
C	 -0.086406	 -1.578379	 1.197618
C	 1.303051	 -1.604812	 1.809418
C	 -0.468991	 -2.890884	 0.531581
H	 -0.820266	 -1.321573	 1.947290
H	 1.541982	 -0.647459	 2.258455
H	 1.358130	 -2.367735	 2.578994
H	 2.050348	 -1.824383	 1.054441
H	 -0.462990	 -3.694917	 1.260629
H	 -1.461962	 -2.829674	 0.104688
H	 0.237499	 -3.137106	 -0.254711
