25

O	 -4.506417	 3.583930	 4.184286
C	 -3.562142	 3.759984	 3.486103
C	 -2.630085	 2.634875	 3.084568
C	 -3.225552	 5.132020	 2.947170
C	 -2.930863	 2.021940	 1.724174
H	 -1.614819	 3.023858	 3.116108
H	 -2.673335	 1.879345	 3.865793
C	 -1.967874	 0.894454	 1.362875
H	 -2.890338	 2.797611	 0.967995
H	 -3.949880	 1.652203	 1.718337
C	 -2.258482	 0.271340	 0.000669
H	 -0.947741	 1.271947	 1.373077
H	 -2.012413	 0.121147	 2.126599
C	 -2.305585	 1.289336	 -1.135201
H	 -3.205786	 -0.260447	 0.044626
H	 -1.501174	 -0.476924	 -0.220044
C	 -3.572900	 2.137654	 -1.127623
H	 -1.437227	 1.939525	 -1.070796
H	 -2.226298	 0.769809	 -2.086371
H	 -3.663669	 2.697063	 -0.202494
H	 -3.574663	 2.849112	 -1.945453
H	 -4.458537	 1.518747	 -1.225834
H	 -3.216641	 5.116178	 1.862865
H	 -3.952404	 5.850131	 3.294150
H	 -2.234739	 5.428901	 3.273044
