14

H   0.000188   -1.351280    -1.189300
N   -0.000017   -1.226225    -0.198206
C   1.151038   -0.424079    0.188950
C   -1.151171   -0.423987    0.188486
H   2.037369   -0.738196    -0.345614
H   1.338031   -0.582289    1.245738
C   0.773170   1.047923    -0.069404
H   -1.338713   -0.582339    1.245149
H   -2.037272   -0.737906    -0.346567
C   -0.773020   1.048048    -0.069415
H   1.154394   1.375990    -1.028887
H   1.188183   1.709303    0.680381
H   -1.187934   1.709243    0.680616
H   -1.154203   1.376517    -1.028760
