22

H	 -3.268214	 -0.875720	 0.463107
C	 -2.806015	 0.000007	 0.024886
N	 -1.391133	 0.000016	 0.301321
H	 -3.029448	 0.000055	 -1.045738
H	 -3.268126	 0.875758	 0.463150
C	 -0.598241	 0.232451	 -0.886480
C	 -0.962719	 -1.204651	 0.978647
H	 -0.750321	 -0.557111	 -1.628311
H	 -0.907411	 1.168210	 -1.336873
C	 0.877117	 0.307389	 -0.540477
H	 -1.537964	 -1.318036	 1.889870
H	 -1.139642	 -2.092179	 0.363959
C	 0.512638	 -1.129713	 1.324650
H	 1.452362	 0.420774	 -1.451699
H	 1.054039	 1.194917	 0.074211
N	 1.305530	 -0.897278	 0.136849
H	 0.821808	 -2.065472	 1.775043
H	 0.664718	 -0.340151	 2.066481
C	 2.720412	 -0.897269	 0.413284
H	 3.277082	 -0.782787	 -0.508441
H	 3.009112	 -1.839251	 0.862599
H	 3.020527	 -0.093375	 1.091402
