17

O	 0.749854	 1.307668	 -0.000040
C	 0.576249	 0.131685	 -0.000108
C	 -0.766779	 -0.556801	 -0.000461
O	 1.568443	 -0.749345	 -0.000005
C	 -1.945214	 0.412366	 0.000161
H	 -0.796911	 -1.211249	 -0.867467
H	 -0.796854	 -1.212390	 0.865687
C	 -1.490218	 1.868712	 -0.081106
H	 -2.534946	 0.258325	 0.897429
H	 -2.598747	 0.181760	 -0.834279
H	 -0.858493	 2.133648	 0.762212
H	 -2.341974	 2.540953	 -0.078868
H	 -0.924001	 2.056506	 -0.989183
C	 2.886820	 -0.232538	 0.000322
H	 3.059106	 0.369571	 -0.880203
H	 3.540187	 -1.091012	 0.000050
H	 3.059019	 0.368956	 0.881266
