29

O	 3.225979	 0.970355	 -0.599647
C	 2.701189	 0.057885	 -0.047330
C	 1.245376	 -0.013843	 0.345420
O	 3.347903	 -1.046386	 0.304773
C	 0.455112	 1.231400	 -0.050772
H	 0.838542	 -0.913825	 -0.103701
H	 1.208210	 -0.175333	 1.419774
C	 -0.998893	 1.219485	 0.433193
H	 0.482531	 1.345121	 -1.130325
H	 0.957290	 2.103070	 0.354729
C	 -1.883438	 0.145884	 -0.207175
H	 -1.431207	 2.195402	 0.224832
H	 -1.019646	 1.105716	 1.516076
C	 -2.015634	 0.310080	 -1.722617
H	 -1.469377	 -0.836879	 0.013163
H	 -2.876521	 0.165326	 0.235975
C	 -2.901605	 -0.754207	 -2.372603
H	 -1.026167	 0.278320	 -2.175586
H	 -2.419608	 1.296729	 -1.944040
C	 -3.025318	 -0.585374	 -3.886502
H	 -2.499917	 -1.740815	 -2.151486
H	 -3.892362	 -0.721103	 -1.924177
H	 -3.659052	 -1.354034	 -4.317953
H	 -2.053880	 -0.648657	 -4.368683
H	 -3.456484	 0.379172	 -4.139527
C	 4.728119	 -1.109107	 -0.004993
H	 4.882018	 -1.033965	 -1.071845
H	 5.068212	 -2.067527	 0.355250
H	 5.265056	 -0.311663	 0.488280
