20

O	 0.768712	 1.336687	 -0.985381
C	 -0.225051	 1.264935	 -0.346327
C	 -1.172222	 2.406261	 -0.104059
O	 -0.637375	 0.157174	 0.243149
H	 -1.257698	 2.588103	 0.959589
H	 -0.808700	 3.289568	 -0.603317
H	 -2.156150	 2.147074	 -0.473215
C	 0.162530	 -1.009518	 0.097799
C	 1.587210	 -0.664190	 0.477086
H	 0.096803	 -1.356267	 -0.924704
H	 -0.233803	 -1.785900	 0.736810
C	 2.256770	 0.342732	 -0.454344
H	 2.154716	 -1.590834	 0.479041
H	 1.598751	 -0.289614	 1.496104
C	 3.698146	 0.643205	 -0.057145
H	 2.235038	 -0.042575	 -1.470299
H	 1.683491	 1.262594	 -0.461300
H	 4.150202	 1.356548	 -0.736242
H	 4.305463	 -0.255904	 -0.069842
H	 3.749130	 1.061068	 0.942759
