16

H   -3.042581   -0.665861    0.004336
O   -2.245037   -1.176175    0.000806
C   -1.162163   -0.365336    0.001020
C   -1.266651   1.013936    0.005576
C   0.086540   -0.974852    -0.006793
H   -2.233827   1.487784    0.008897
C   -0.107982   1.777734    0.002447
H   0.130741   -2.048691    -0.012541
C   1.241376   -0.212314    -0.008586
H   -0.185558   2.850590    0.003571
C   1.135396   1.178631    -0.005313
C   2.599756   -0.873870    0.007163
H   2.024395   1.784425    -0.010190
H   3.280435   -0.385877    -0.682278
H   2.533794   -1.919542    -0.268663
H   3.043070   -0.819382    0.997542
