29

O	 -0.427360	 -1.392182	 -0.665010
C	 0.595354	 -1.297218	 -0.076775
C	 1.246364	 -0.005813	 0.348416
O	 1.317782	 -2.342573	 0.292610
C	 0.453207	 1.232821	 -0.049003
H	 1.394842	 -0.066917	 1.419758
H	 2.239873	 0.009843	 -0.088647
C	 -0.998367	 1.217982	 0.432195
H	 0.481498	 1.345443	 -1.127236
H	 0.951413	 2.105557	 0.354893
C	 -1.179348	 1.304961	 1.946819
H	 -1.459175	 0.299611	 0.080889
H	 -1.545151	 2.029497	 -0.042938
C	 -0.353453	 2.419653	 2.583328
H	 -2.231366	 1.465471	 2.171244
H	 -0.909129	 0.360876	 2.410738
C	 1.150310	 2.164020	 2.537251
H	 -0.662575	 2.549419	 3.617709
H	 -0.571701	 3.359610	 2.081617
C	 1.968431	 3.281021	 3.176596
H	 1.369963	 1.225216	 3.038371
H	 1.461375	 2.036868	 1.503846
H	 3.030208	 3.068550	 3.126893
H	 1.705678	 3.409686	 4.221352
H	 1.796999	 4.227877	 2.675314
C	 0.824678	 -3.623490	 -0.043565
H	 -0.139967	 -3.792406	 0.411591
H	 1.544729	 -4.329140	 0.337866
H	 0.731980	 -3.727573	 -1.114467
