15

H	 1.227250	 -1.488031	 1.696561
O	 0.550699	 -0.922573	 1.352720
C	 1.135793	 0.118896	 0.612333
C	 0.031547	 1.023609	 0.088541
H	 1.699777	 -0.281668	 -0.228120
H	 1.832128	 0.681689	 1.229976
C	 -1.134819	 0.293262	 -0.585751
H	 0.474374	 1.714721	 -0.623187
H	 -0.338529	 1.620940	 0.920081
C	 -1.917817	 -0.639439	 0.339494
H	 -0.758119	 -0.268455	 -1.433105
H	 -1.813832	 1.041889	 -0.986690
H	 -2.777680	 -1.057197	 -0.174994
H	 -1.310268	 -1.471279	 0.680599
H	 -2.283753	 -0.111424	 1.216626
