22

H	 1.301991	 -2.588825	 -1.757487
C	 1.255997	 -1.554774	 -1.432821
C	 0.135987	 -1.371460	 -0.417697
H	 1.082422	 -0.929350	 -2.299791
H	 2.225589	 -1.296872	 -1.025251
N	 0.000297	 0.000045	 0.046090
H	 -0.792358	 -1.666678	 -0.886888
H	 0.280823	 -2.055863	 0.422865
C	 -1.359159	 0.315706	 0.454404
C	 0.979050	 0.340317	 1.066276
C	 -2.416729	 -0.286720	 -0.460525
H	 -1.478729	 1.390261	 0.442008
H	 -1.539692	 0.003361	 1.486761
C	 1.329656	 1.821815	 1.092340
H	 1.885655	 -0.214761	 0.868750
H	 0.639103	 0.021798	 2.055667
H	 -2.285276	 0.073129	 -1.473515
H	 -2.371743	 -1.368476	 -0.483209
H	 -3.408658	 -0.007405	 -0.121593
H	 1.732342	 2.128788	 0.134990
H	 0.469078	 2.443492	 1.306114
H	 2.073088	 2.017616	 1.857705
