23

O	 1.816773	 1.332945	 -0.963344
C	 0.781622	 1.719742	 -1.387478
C	 -0.518669	 0.958420	 -1.351787
O	 0.630629	 2.901797	 -1.962250
C	 -0.824290	 0.329213	 -0.000115
H	 -1.301960	 1.647247	 -1.650821
H	 -0.472151	 0.207303	 -2.133516
C	 -2.040011	 0.960007	 0.672298
H	 0.043239	 0.424968	 0.642923
H	 -0.985970	 -0.734906	 -0.129732
C	 -1.760188	 2.351276	 1.233136
H	 -2.858649	 1.020609	 -0.041432
H	 -2.386068	 0.313853	 1.476019
C	 -2.975328	 2.981970	 1.904753
H	 -1.415396	 2.997759	 0.431054
H	 -0.943782	 2.291679	 1.947341
H	 -3.798679	 3.086938	 1.205962
H	 -2.742632	 3.967533	 2.291087
H	 -3.323101	 2.375482	 2.734488
C	 1.774850	 3.725117	 -2.063383
H	 2.168391	 3.953019	 -1.083894
H	 1.449161	 4.628457	 -2.553025
H	 2.542901	 3.240436	 -2.647673
