16

H	 -0.000342	 -0.223902	 -3.352295
C	 -0.027146	 0.371068	 -2.446756
C	 0.024493	 -0.518541	 -1.216015
H	 -0.932586	 0.964979	 -2.449855
H	 0.819708	 1.049865	 -2.473332
N	 -0.042516	 0.263377	 0.000000
H	 -0.822211	 -1.197105	 -1.225584
H	 0.921114	 -1.142847	 -1.255206
C	 0.024493	 -0.518541	 1.216015
H	 0.682568	 0.950412	 0.000000
C	 0.625582	 -1.889816	 0.957000
H	 0.644214	 0.018647	 1.926525
H	 -0.955792	 -0.633445	 1.686187
H	 1.617764	 -1.797043	 0.533291
H	 0.693778	 -2.459365	 1.876605
H	 0.015462	 -2.458283	 0.261852
