22

O	 -0.511576	 -4.605147	 -1.614658
C	 0.001946	 -3.792893	 -2.313207
C	 0.173084	 -2.359501	 -1.850445
C	 0.526578	 -4.145860	 -3.684682
C	 1.437343	 -2.204080	 -0.995848
H	 -0.697482	 -2.099027	 -1.261905
H	 0.220420	 -1.691623	 -2.704004
C	 1.630207	 -0.772146	 -0.501001
H	 1.368228	 -2.888373	 -0.159670
H	 2.309069	 -2.502195	 -1.573361
C	 2.907848	 -0.545876	 0.309149
H	 0.769973	 -0.482806	 0.097547
H	 1.642133	 -0.105125	 -1.358640
C	 3.373802	 0.906639	 0.372125
H	 3.699140	 -1.146831	 -0.127906
H	 2.764321	 -0.923458	 1.318191
H	 3.519798	 1.311927	 -0.623875
H	 4.316899	 0.983758	 0.900700
H	 2.661122	 1.540651	 0.885346
H	 -0.077715	 -3.648519	 -4.436665
H	 0.483291	 -5.213452	 -3.836147
H	 1.544565	 -3.793472	 -3.807630
