27

H	 6.830139	 -7.991321	 -3.594019
O	 6.919685	 -7.395448	 -2.873778
C	 7.556133	 -6.217560	 -3.294236
C	 6.625766	 -5.246052	 -4.005063
H	 7.944837	 -5.755363	 -2.396871
H	 8.407465	 -6.452502	 -3.930229
C	 5.299835	 -5.007562	 -3.286121
H	 7.146262	 -4.301970	 -4.135263
H	 6.429886	 -5.638477	 -5.000066
C	 4.400007	 -6.242517	 -3.280490
H	 4.778290	 -4.182660	 -3.759968
H	 5.496439	 -4.704914	 -2.258971
C	 3.088537	 -6.083096	 -2.509202
H	 4.180494	 -6.528847	 -4.306188
H	 4.953989	 -7.071040	 -2.847914
C	 3.242983	 -5.916942	 -0.998480
H	 2.566413	 -5.214319	 -2.900535
H	 2.446575	 -6.937153	 -2.713230
C	 3.750804	 -7.179894	 -0.307479
H	 2.283547	 -5.636091	 -0.569441
H	 3.924612	 -5.100430	 -0.780089
C	 4.965751	 -7.793247	 -0.995661
H	 4.000501	 -6.948511	 0.724359
H	 2.950435	 -7.914048	 -0.268893
H	 5.795156	 -7.094214	 -1.021691
H	 5.301626	 -8.685061	 -0.478976
H	 4.737476	 -8.070934	 -2.019444
