22

H   4.612622   0.364306    -0.041919
C   3.752215   -0.292588    0.006022
C   2.451957   0.502389    -0.038618
H   3.817882   -0.982944    -0.828325
H   3.830038   -0.871749    0.920097
C   1.215950   -0.382441    0.027187
H   2.407431   1.093757    -0.946399
H   2.431928   1.206237    0.790100
N   0.000002   0.398953    -0.040851
H   1.221890   -1.069398    -0.813779
H   1.259908   -0.999711    0.929478
C   -1.215959   -0.382435    0.027143
H   -0.000012   1.086078    0.683841
C   -2.451944   0.502410    -0.038737
H   -1.221867   -1.069392    -0.813828
H   -1.259993   -0.999709    0.929424
C   -3.752217   -0.292550    0.005776
H   -2.407325   1.093801    -0.946480
H   -2.431979   1.206234    0.790023
H   -3.817783   -0.982946    -0.828547
H   -4.612613   0.364348    -0.042306
H   -3.830160   -0.871666    0.919868
