9

H	 1.491759	 -1.131559	 1.232816
C	 0.602581	 -1.246253	 0.630389
O	 0.000000	 0.000000	 0.518769
H	 0.887584	 -1.639769	 -0.343148
H	 -0.056278	 -1.965805	 1.112059
C	 -1.165153	 0.000000	 -0.236961
H	 -1.229451	 0.882440	 -0.870223
H	 -2.002557	 0.000000	 0.445289
H	 -1.229451	 -0.882440	 -0.870223
