27

H	 -0.155821	 1.757906	 4.181218
O	 0.771119	 1.733751	 4.369022
C	 1.214957	 0.400894	 4.392544
C	 1.288202	 -0.232819	 3.007708
H	 2.202438	 0.427296	 4.835104
H	 0.583677	 -0.199464	 5.046635
C	 -0.067989	 -0.362122	 2.309930
H	 1.960191	 0.359799	 2.392400
H	 1.738011	 -1.219060	 3.109526
C	 0.032096	 -1.050730	 0.945885
H	 -0.501692	 0.626318	 2.186423
H	 -0.750009	 -0.926738	 2.945854
C	 -1.309753	 -1.282496	 0.241564
H	 0.682922	 -0.467228	 0.297195
H	 0.521642	 -2.013165	 1.079168
C	 -2.037799	 -0.007733	 -0.193645
H	 -1.132177	 -1.897739	 -0.638072
H	 -1.960620	 -1.865745	 0.891203
C	 -3.489788	 0.042957	 0.286558
H	 -2.017067	 0.064384	 -1.280144
H	 -1.513726	 0.868678	 0.179924
C	 -4.216917	 1.317354	 -0.141063
H	 -4.025645	 -0.823308	 -0.095450
H	 -3.513059	 -0.038752	 1.371301
H	 -4.239342	 1.411634	 -1.223113
H	 -5.243387	 1.322503	 0.212445
H	 -3.726170	 2.201406	 0.256408
