14

H	 1.725724	 0.004109	 -2.035476
C	 1.149624	 0.002704	 -1.126377
N	 1.839356	 0.007882	 -0.000000
C	 -0.232887	 -0.007412	 -1.183199
C	 1.149624	 0.002704	 1.126377
H	 -0.729663	 -0.014428	 -2.136767
C	 -0.959371	 -0.010729	 -0.000000
H	 1.725724	 0.004109	 2.035476
C	 -0.232887	 -0.007412	 1.183199
C	 -2.467777	 0.007701	 0.000000
H	 -0.729663	 -0.014428	 2.136767
H	 -2.867252	 -0.485484	 -0.878495
H	 -2.867252	 -0.485484	 0.878495
H	 -2.834377	 1.030337	 0.000000
