9

H	 -1.692841	 2.398831	 0.633862
C	 -0.673022	 2.037711	 0.656897
C	 -0.600949	 0.658697	 -0.000002
H	 -0.348510	 1.992058	 1.687767
H	 -0.045862	 2.747686	 0.134697
C	 0.763408	 0.112229	 -0.000006
H	 -1.237976	 -0.047063	 0.516750
H	 -0.937033	 0.704309	 -1.027572
N	 1.806008	 -0.317179	 0.000007
