18

H	 -3.962728	 -0.414018	 -0.841437
C	 -2.913157	 -0.265376	 -0.672674
C	 -2.420041	 1.011994	 -0.475686
C	 -2.058229	 -1.351050	 -0.652829
H	 -3.084222	 1.854207	 -0.491222
C	 -1.071222	 1.202203	 -0.258884
H	 -2.441636	 -2.341253	 -0.805702
C	 -0.707390	 -1.162217	 -0.435865
H	 -0.672582	 2.184207	 -0.104572
C	 -0.209972	 0.116062	 -0.238155
H	 -0.042592	 -2.000857	 -0.419890
C	 1.238974	 0.374429	 0.000004
O	 1.470262	 1.542441	 0.569426
O	 2.100748	 -0.386285	 -0.289546
C	 2.784154	 1.785985	 1.031956
H	 3.063200	 1.060928	 1.781490
H	 2.768992	 2.776105	 1.457422
H	 3.488623	 1.740456	 0.215225
