16

H	 -2.906974	 -0.642679	 0.683762
C	 -2.819879	 -0.128467	 -0.270640
O	 -1.492604	 0.013101	 -0.652532
H	 -3.321194	 -0.713616	 -1.027722
H	 -3.317480	 0.836142	 -0.188130
C	 -0.718530	 0.758693	 0.228682
C	 0.718529	 0.758687	 -0.228709
H	 -1.076433	 1.787453	 0.267774
H	 -0.773887	 0.345928	 1.233665
O	 1.401606	 -0.295166	 0.366636
H	 0.748705	 0.673477	 -1.312803
H	 1.176496	 1.708671	 0.046552
C	 2.714315	 -0.441627	 -0.061017
H	 2.765292	 -0.641548	 -1.128869
H	 3.305661	 0.447341	 0.150952
H	 3.143725	 -1.278506	 0.470147
