27

H	 0.372786	 -3.063731	 -4.270100
O	 1.311417	 -3.054546	 -4.296892
C	 1.799065	 -1.830421	 -3.814203
C	 1.658666	 -1.673376	 -2.307448
H	 2.845903	 -1.802073	 -4.084955
H	 1.312159	 -1.000761	 -4.323160
C	 0.214485	 -1.611354	 -1.815164
H	 2.174607	 -2.497936	 -1.824682
H	 2.177171	 -0.762872	 -2.016704
C	 -0.258940	 -2.929552	 -1.204378
H	 -0.434837	 -1.342256	 -2.641583
H	 0.120644	 -0.820397	 -1.072959
C	 -1.675416	 -2.902576	 -0.627210
H	 -0.191709	 -3.714588	 -1.953661
H	 0.429365	 -3.209333	 -0.411644
C	 -1.855955	 -2.013572	 0.601944
H	 -2.353473	 -2.559757	 -1.403896
H	 -1.983344	 -3.917384	 -0.385343
C	 -3.304035	 -1.941906	 1.079793
H	 -1.505448	 -1.009691	 0.372085
H	 -1.235751	 -2.373065	 1.417490
C	 -3.487249	 -1.058111	 2.309115
H	 -3.929984	 -1.570386	 0.273110
H	 -3.658451	 -2.944984	 1.301799
H	 -3.171535	 -0.039460	 2.109336
H	 -4.525332	 -1.027159	 2.619812
H	 -2.902764	 -1.425338	 3.146297
