25

O	 2.862325	 1.357334	 0.000267
C	 2.843464	 0.164689	 -0.000222
C	 1.546494	 -0.624492	 -0.000609
C	 4.124123	 -0.644674	 -0.000428
C	 0.291004	 0.242674	 0.000989
H	 1.557904	 -1.283758	 -0.867573
H	 1.558622	 -1.285963	 0.864672
C	 -0.994322	 -0.586602	 0.000262
H	 0.309117	 0.896430	 -0.865270
H	 0.309661	 0.894078	 0.869017
C	 -2.259874	 0.272531	 0.000494
H	 -1.004862	 -1.240012	 -0.870939
H	 -1.005220	 -1.241071	 0.870675
C	 -2.050297	 1.658921	 0.612059
H	 -3.046073	 -0.245790	 0.546621
H	 -2.620607	 0.381333	 -1.020795
C	 -3.318965	 2.511069	 0.608909
H	 -1.690840	 1.551453	 1.633365
H	 -1.265666	 2.178601	 0.066031
H	 -4.113071	 2.033856	 1.176196
H	 -3.138881	 3.487092	 1.048964
H	 -3.684252	 2.666435	 -0.402314
H	 4.165367	 -1.288615	 -0.874074
H	 4.976217	 0.020734	 -0.001915
H	 4.166763	 -1.286207	 0.874930
