27

H	 0.372786	 -3.063731	 -4.270100
O	 1.311417	 -3.054546	 -4.296892
C	 1.799065	 -1.830421	 -3.814203
C	 1.658666	 -1.673376	 -2.307448
H	 2.845903	 -1.802073	 -4.084955
H	 1.312159	 -1.000761	 -4.323160
C	 0.754389	 -2.713506	 -1.649982
H	 2.648171	 -1.715122	 -1.862145
H	 1.265425	 -0.678924	 -2.110410
C	 -0.712907	 -2.556241	 -2.046400
H	 0.847285	 -2.639111	 -0.571632
H	 1.093225	 -3.710845	 -1.925286
C	 -1.654207	 -3.618034	 -1.474730
H	 -1.059885	 -1.570340	 -1.746680
H	 -0.782285	 -2.583899	 -3.130324
C	 -1.433080	 -5.032554	 -2.007627
H	 -1.535075	 -3.633323	 -0.394868
H	 -2.684131	 -3.321043	 -1.659681
C	 -2.327755	 -6.070795	 -1.335301
H	 -0.391455	 -5.310828	 -1.862545
H	 -1.608986	 -5.060103	 -3.078748
C	 -2.112206	 -7.483605	 -1.867653
H	 -2.148382	 -6.058865	 -0.263732
H	 -3.368594	 -5.789708	 -1.472073
H	 -1.087520	 -7.806701	 -1.716436
H	 -2.759882	 -8.194984	 -1.368091
H	 -2.320478	 -7.537580	 -2.931166
