24

H	 -3.436473	 1.252944	 -1.023892
O	 -3.458596	 0.315260	 -0.960865
C	 -3.176635	 -0.080824	 0.355601
C	 -1.763371	 0.265266	 0.799691
H	 -3.321825	 -1.153438	 0.379502
H	 -3.895468	 0.357385	 1.043382
C	 -1.361690	 -0.365992	 2.129536
H	 -1.064199	 -0.039223	 0.022317
H	 -1.686932	 1.347757	 0.868672
C	 0.069824	 -0.035490	 2.543668
H	 -1.482930	 -1.441693	 2.065648
H	 -2.047488	 -0.027779	 2.902711
C	 0.463842	 -0.666156	 3.877857
H	 0.747625	 -0.366293	 1.762615
H	 0.186065	 1.044217	 2.611332
C	 1.862714	 -0.298391	 4.375606
H	 0.385117	 -1.748091	 3.799952
H	 -0.259221	 -0.364584	 4.630754
C	 3.006597	 -0.829731	 3.515167
H	 1.979737	 -0.682758	 5.384241
H	 1.942788	 0.782803	 4.453247
H	 2.949033	 -1.908932	 3.414724
H	 3.965643	 -0.591347	 3.960862
H	 2.996821	 -0.404104	 2.518999
