25

H	 0.824708	 4.563238	 -1.505216
C	 1.681760	 4.649237	 -0.823342
C	 1.422172	 4.181030	 0.582819
O	 2.705560	 5.093168	 -1.213298
C	 0.824626	 2.771912	 0.637601
H	 2.345913	 4.244838	 1.143145
H	 0.717201	 4.885278	 1.019115
C	 1.787418	 1.679707	 0.176839
H	 0.512940	 2.571083	 1.656845
H	 -0.079226	 2.740622	 0.034057
C	 1.181757	 0.280428	 0.247371
H	 2.684796	 1.716655	 0.788767
H	 2.110427	 1.879404	 -0.841598
C	 2.151032	 -0.811012	 -0.202643
H	 0.853567	 0.090214	 1.264453
H	 0.289479	 0.244049	 -0.373769
C	 3.580021	 -0.656538	 0.320835
H	 2.170545	 -0.847575	 -1.289412
H	 1.766632	 -1.772905	 0.124928
C	 4.327657	 0.562694	 -0.213579
H	 4.138806	 -1.549270	 0.057813
H	 3.561991	 -0.620783	 1.406976
H	 4.355973	 0.557257	 -1.298551
H	 3.867136	 1.491650	 0.100501
H	 5.351524	 0.571613	 0.142204
