17

O	 0.623971	 1.347241	 -0.000777
C	 0.485107	 0.171416	 -0.000134
C	 1.606966	 -0.836201	 0.000174
O	 -0.695554	 -0.422406	 0.000602
C	 2.988788	 -0.202529	 -0.000115
H	 1.465110	 -1.474645	 -0.864821
H	 1.465209	 -1.474077	 0.865596
H	 3.131767	 0.419673	 -0.873407
H	 3.750876	 -0.972315	 0.000098
H	 3.131883	 0.420264	 0.872742
C	 -1.095043	 -1.104957	 -1.179576
C	 -2.463608	 -1.694657	 -0.931039
H	 -0.367914	 -1.871643	 -1.407224
H	 -1.107645	 -0.406439	 -2.004341
H	 -2.438854	 -2.391504	 -0.102689
H	 -2.799395	 -2.224364	 -1.814719
H	 -3.182819	 -0.917978	 -0.703273
