16

H   -2.273092   1.173159    0.000295
O   -1.438904   1.618192    0.000114
C   -0.409536   0.736003    0.000030
C   0.868677   1.272073    -0.000010
C   -0.609332   -0.642773    0.000010
H   0.977786   2.340757    0.000003
C   1.967535   0.434206    -0.000037
C   0.513624   -1.461283    -0.000004
C   -2.004755   -1.225698    -0.000093
H   2.956591   0.856417    -0.000059
C   1.795532   -0.940709    -0.000030
H   0.376171   -2.528734    -0.000036
H   -2.571146   -0.924922    -0.879114
H   -1.967321   -2.307629    0.000007
H   -2.571377   -0.924700    0.878734
H   2.645631   -1.598380    -0.000057
