18

H	 -2.171709	 0.882708	 0.500286
C	 -2.016894	 0.001719	 -0.114152
O	 -0.775228	 0.000056	 -0.739966
H	 -2.760846	 0.003757	 -0.898169
H	 -2.174774	 -0.879864	 0.498643
C	 0.195844	 -0.961739	 -0.377681
C	 1.387773	 -0.635176	 -1.270735
C	 0.592832	 -0.817933	 1.092815
C	 -0.297700	 -2.380631	 -0.667083
H	 1.725116	 0.377123	 -1.087557
H	 1.105487	 -0.712634	 -2.313049
H	 2.211073	 -1.314140	 -1.083241
H	 0.878938	 0.204840	 1.306703
H	 1.435398	 -1.461398	 1.316254
H	 -0.212799	 -1.094749	 1.761316
H	 -0.638794	 -2.458336	 -1.692416
H	 0.506123	 -3.092146	 -0.520485
H	 -1.110656	 -2.670578	 -0.013171
