20

H	 0.559871	 -3.346639	 -0.734483
O	 0.921754	 -2.606501	 -0.270875
C	 0.116995	 -1.562917	 -0.451782
C	 0.626018	 -0.337582	 0.258241
O	 -0.869001	 -1.635093	 -1.100198
C	 -0.267326	 0.883135	 0.076490
H	 0.741926	 -0.606795	 1.301289
H	 1.628560	 -0.149021	 -0.112955
C	 -1.726822	 0.642622	 0.463839
H	 -0.210803	 1.217591	 -0.953497
H	 0.129920	 1.693110	 0.675679
C	 -2.744379	 0.915850	 -0.642490
H	 -1.959145	 1.280374	 1.311514
H	 -1.844693	 -0.379961	 0.815801
C	 -4.185757	 0.760925	 -0.168251
H	 -2.596529	 1.923511	 -1.021693
H	 -2.576373	 0.246244	 -1.479961
H	 -4.886607	 0.961981	 -0.970166
H	 -4.406039	 1.445748	 0.643655
H	 -4.373385	 -0.245825	 0.190087
