9

H	 1.784131	 -0.873609	 0.782048
C	 0.924588	 -0.962157	 0.133932
O	 0.000000	 0.000000	 0.518769
H	 1.245808	 -0.817021	 -0.895441
H	 0.517108	 -1.966627	 0.228037
C	 -1.165153	 0.000000	 -0.236961
H	 -1.229451	 0.882440	 -0.870223
H	 -2.002557	 0.000000	 0.445289
H	 -1.229451	 -0.882440	 -0.870223
