14

H	 -2.816458	 -0.841657	 -0.064679
N	 -1.878861	 -0.711874	 0.250184
C	 -1.341419	 0.551458	 -0.220231
H	 -1.333674	 -1.468530	 -0.105118
C	 0.082190	 0.731516	 0.254705
H	 -1.357065	 0.652078	 -1.304747
H	 -1.939897	 1.357530	 0.189797
O	 0.268141	 -0.021050	 1.415211
H	 0.774353	 0.402713	 -0.519227
H	 0.270138	 1.783794	 0.455490
C	 1.523642	 0.113213	 1.993927
H	 1.552121	 -0.511560	 2.874968
H	 2.311022	 -0.205704	 1.314207
H	 1.718543	 1.142054	 2.287291
