16

H	 -3.294565	 0.569785	 0.000000
C	 -2.246225	 0.343737	 0.000000
C	 -1.809462	 -0.973484	 0.000000
C	 -1.312577	 1.353775	 0.000000
H	 -2.523539	 -1.775124	 0.000000
C	 -0.467257	 -1.267606	 0.000000
H	 -1.631287	 2.379013	 0.000000
C	 0.046966	 1.074396	 0.000000
H	 -0.119372	 -2.281828	 0.000000
C	 0.471772	 -0.241514	 0.000000
H	 0.748162	 1.882966	 0.000000
O	 1.760432	 -0.625184	 0.000000
C	 2.255979	 -1.403573	 -1.047236
H	 1.740924	 -2.355424	 -1.113606
H	 3.297004	 -1.581634	 -0.828309
H	 2.177906	 -0.887701	 -1.997756
