23

O	 -2.817697	 1.304178	 0.001046
C	 -2.664672	 0.129869	 0.003507
C	 -3.797908	 -0.860100	 -0.001145
O	 -1.481217	 -0.452708	 0.001092
H	 -4.408836	 -0.679689	 -0.875387
H	 -3.443486	 -1.878443	 -0.002770
H	 -4.412123	 -0.683688	 0.871605
C	 -0.332055	 0.384012	 -0.000250
C	 0.892252	 -0.506059	 -0.000295
H	 -0.360822	 1.020205	 -0.874146
H	 -0.359817	 1.021310	 0.872861
C	 2.188199	 0.299473	 -0.001416
H	 0.857046	 -1.152781	 -0.871031
H	 0.857910	 -1.151798	 0.871202
C	 2.361993	 1.150383	 -1.256356
H	 2.215158	 0.944137	 0.873603
H	 3.034971	 -0.375967	 0.092027
C	 3.657465	 1.954595	 -1.258411
H	 1.517295	 1.826988	 -1.349884
H	 2.335377	 0.507232	 -2.131419
H	 3.698413	 2.632966	 -0.412845
H	 3.749974	 2.546508	 -2.161510
H	 4.522830	 1.302985	 -1.200105
