12

H	 -1.257315	 -0.583665	 0.756919
N	 -0.625934	 -0.663929	 -0.000707
C	 -0.923019	 -1.617493	 -1.043565
C	 0.468494	 0.129045	 -0.002160
H	 -0.975135	 -2.623966	 -0.645715
H	 -0.136573	 -1.573527	 -1.777501
H	 -1.865263	 -1.385278	 -1.525530
C	 1.785715	 -0.615093	 0.000603
O	 0.413285	 1.323206	 0.000532
H	 1.866994	 -1.243310	 -0.878792
H	 2.591506	 0.100263	 0.006422
H	 1.860358	 -1.250360	 0.875522
