20

H	 0.559871	 -3.346639	 -0.734483
O	 0.921754	 -2.606501	 -0.270875
C	 0.116995	 -1.562917	 -0.451782
C	 0.626018	 -0.337582	 0.258241
O	 -0.869001	 -1.635093	 -1.100198
C	 -0.267326	 0.883135	 0.076490
H	 0.741926	 -0.606795	 1.301289
H	 1.628560	 -0.149021	 -0.112955
C	 -1.726822	 0.642622	 0.463839
H	 -0.210803	 1.217591	 -0.953497
H	 0.129920	 1.693110	 0.675679
C	 -2.311443	 -0.687977	 -0.007079
H	 -2.322741	 1.448530	 0.045932
H	 -1.832639	 0.719372	 1.543820
C	 -3.795708	 -0.826294	 0.315882
H	 -2.166317	 -0.781135	 -1.080063
H	 -1.774741	 -1.514838	 0.447023
H	 -4.185823	 -1.776470	 -0.030036
H	 -4.373685	 -0.039197	 -0.156472
H	 -3.970403	 -0.766744	 1.385036
