20

H	 3.721907	 -0.933076	 -0.066039
O	 2.824271	 -1.154299	 0.131461
C	 2.076458	 -0.067370	 -0.038225
C	 0.626018	 -0.337582	 0.258241
O	 2.538288	 0.965419	 -0.381593
C	 -0.267326	 0.883135	 0.076490
H	 0.325620	 -1.161483	 -0.378003
H	 0.574537	 -0.713685	 1.275261
C	 -1.726822	 0.642622	 0.463839
H	 -0.210803	 1.217591	 -0.953497
H	 0.129920	 1.693110	 0.675679
C	 -2.480891	 -0.340606	 -0.429852
H	 -2.243098	 1.597649	 0.438609
H	 -1.776542	 0.301208	 1.495542
C	 -2.364842	 0.002153	 -1.911582
H	 -2.096127	 -1.342845	 -0.261010
H	 -3.530939	 -0.366096	 -0.156531
H	 -2.905895	 -0.710715	 -2.522944
H	 -1.329220	 -0.003478	 -2.234311
H	 -2.768590	 0.987891	 -2.117649
