18

H   2.867672   -0.456275    0.875795
C   2.403497   -0.020426    0.000000
N   0.989899   -0.304564    0.000000
H   2.867672   -0.456275    -0.875795
H   2.620366   1.051270    0.000000
C   0.327046   0.185007    -1.191014
C   0.327046   0.185007    1.191014
H   0.417481   1.271994    -1.280596
H   0.792482   -0.255924    -2.064900
C   -1.142105   -0.190361    -1.160412
H   0.792482   -0.255924    2.064900
H   0.417481   1.271994    1.280596
C   -1.142105   -0.190361    1.160412
H   -1.663470   0.249226    -1.999202
H   -1.242293   -1.272237    -1.220460
O   -1.759633   0.282131    0.000000
H   -1.663470   0.249226    1.999202
H   -1.242293   -1.272237    1.220460
