28

H	 3.956442	 4.047133	 -1.627255
C	 3.047378	 3.861500	 -2.187621
C	 2.205230	 2.774897	 -1.527768
H	 2.499056	 4.795314	 -2.247208
H	 3.332185	 3.580136	 -3.196342
C	 0.919638	 2.478430	 -2.296748
H	 1.959776	 3.077546	 -0.516286
H	 2.793348	 1.863486	 -1.448586
C	 0.059103	 1.390025	 -1.662918
H	 0.333251	 3.384595	 -2.385322
H	 1.174448	 2.166869	 -3.305601
C	 -0.641639	 1.802304	 -0.379379
H	 -0.726055	 1.092158	 -2.353256
H	 0.642037	 0.492910	 -1.476125
C	 -1.180025	 0.697761	 0.509157
O	 -0.784931	 2.945396	 -0.085979
C	 -2.285431	 -0.137488	 -0.145671
H	 -1.551865	 1.168125	 1.409341
H	 -0.354342	 0.048063	 0.787252
C	 -3.646545	 0.082747	 0.508954
H	 -2.348635	 0.118247	 -1.199806
H	 -2.034895	 -1.192387	 -0.096473
C	 -4.757412	 -0.737227	 -0.138149
H	 -3.900211	 1.137405	 0.459735
H	 -3.580878	 -0.166775	 1.564416
H	 -4.867876	 -0.486707	 -1.187777
H	 -4.549650	 -1.800049	 -0.072540
H	 -5.709585	 -0.556397	 0.346597
