24

H	 -3.420663	 1.227371	 -1.044276
O	 -3.452007	 0.283848	 -0.965577
C	 -3.181085	 -0.079926	 0.364119
C	 -1.765924	 0.277073	 0.805136
H	 -3.327791	 -1.152017	 0.410903
H	 -3.905698	 0.375695	 1.036898
C	 -0.677594	 -0.417312	 -0.014550
H	 -1.637766	 1.358238	 0.744969
H	 -1.659588	 0.017670	 1.857098
C	 0.738335	 -0.034840	 0.421385
H	 -0.814977	 -0.178223	 -1.064632
H	 -0.802730	 -1.495410	 0.071702
C	 1.822265	 -0.738362	 -0.399735
H	 0.853533	 1.043532	 0.342250
H	 0.871597	 -0.279636	 1.474438
C	 1.608949	 -2.244896	 -0.586837
H	 2.792297	 -0.568776	 0.064995
H	 1.871916	 -0.272583	 -1.381774
C	 1.699519	 -3.064814	 0.701549
H	 2.354475	 -2.613712	 -1.287162
H	 0.642171	 -2.415622	 -1.056301
H	 2.651886	 -2.904181	 1.199878
H	 1.613477	 -4.126236	 0.489847
H	 0.911981	 -2.808800	 1.402551
