19

O	 -2.042549	 -1.228399	 -0.269030
C	 -1.653912	 -0.146171	 0.050137
C	 -0.332303	 0.024011	 0.778412
C	 -2.438579	 1.106236	 -0.272369
C	 0.845713	 -0.001731	 -0.208243
H	 -0.323783	 0.953829	 1.340327
H	 -0.235459	 -0.796807	 1.480410
C	 2.201152	 0.119568	 0.489685
H	 0.739947	 0.807385	 -0.928817
H	 0.804264	 -0.928447	 -0.772707
C	 3.374828	 0.085241	 -0.488329
H	 2.232459	 1.045130	 1.060457
H	 2.306283	 -0.688507	 1.209776
H	 3.316036	 0.902715	 -1.201304
H	 3.388653	 -0.843597	 -1.050924
H	 4.322300	 0.169993	 0.034299
H	 -3.277823	 0.863061	 -0.908988
H	 -1.806773	 1.843019	 -0.759671
H	 -2.802853	 1.554979	 0.648059
