27

H	 3.008101	 -1.893691	 1.050030
O	 3.696793	 -2.526870	 1.131378
C	 3.681607	 -3.098999	 2.412671
C	 2.523533	 -4.060588	 2.633800
H	 4.617898	 -3.631914	 2.509310
H	 3.672906	 -2.322301	 3.174979
C	 2.321964	 -5.069663	 1.505534
H	 2.685038	 -4.586238	 3.570158
H	 1.618047	 -3.470813	 2.754876
C	 1.849254	 -4.417750	 0.206922
H	 1.600652	 -5.817444	 1.817841
H	 3.257460	 -5.595042	 1.320846
C	 1.701674	 -5.372571	 -0.979160
H	 0.900904	 -3.916231	 0.383948
H	 2.556215	 -3.638951	 -0.065379
C	 3.009841	 -5.968591	 -1.496077
H	 1.045176	 -6.185868	 -0.682369
H	 1.194747	 -4.858181	 -1.792538
C	 3.483501	 -7.168232	 -0.679428
H	 3.781425	 -5.201776	 -1.485084
H	 2.898094	 -6.272898	 -2.532375
C	 4.787405	 -7.768073	 -1.195101
H	 3.610487	 -6.868801	 0.357294
H	 2.710250	 -7.931867	 -0.682378
H	 5.589371	 -7.037552	 -1.174452
H	 5.096164	 -8.614511	 -0.592342
H	 4.682460	 -8.112344	 -2.218729
