29

O	 3.219313	 0.959291	 -0.614106
C	 2.698710	 0.058177	 -0.050237
C	 1.246364	 -0.005813	 0.348416
O	 3.344101	 -1.038700	 0.312317
C	 0.453207	 1.232821	 -0.049003
H	 0.839270	 -0.907818	 -0.092281
H	 1.216683	 -0.160521	 1.422434
C	 -0.998367	 1.217982	 0.432195
H	 0.481498	 1.345443	 -1.127236
H	 0.951413	 2.105557	 0.354893
C	 -1.882951	 0.151251	 -0.211235
H	 -1.429490	 2.193659	 0.228843
H	 -1.019755	 1.099323	 1.513279
C	 -1.230220	 -0.516158	 -1.418834
H	 -2.123732	 -0.606765	 0.530592
H	 -2.828697	 0.586327	 -0.520766
C	 -1.071589	 0.416117	 -2.616529
H	 -1.820651	 -1.380221	 -1.714005
H	 -0.253579	 -0.899862	 -1.132810
C	 -0.420483	 -0.258304	 -3.819439
H	 -2.046682	 0.800165	 -2.903619
H	 -0.479315	 1.278934	 -2.323928
H	 -0.322699	 0.430191	 -4.650941
H	 -1.007916	 -1.105003	 -4.158751
H	 0.571387	 -0.623307	 -3.574132
C	 4.720529	 -1.114346	 0.001449
H	 4.874321	 -1.055557	 -1.065852
H	 5.057824	 -2.067950	 0.373977
H	 5.264321	 -0.313596	 0.480350
