17

O	 -1.278239	 1.034789	 -0.784693
C	 -1.204115	 0.062668	 -0.112312
C	 -2.386398	 -0.667698	 0.460323
O	 -0.068058	 -0.518372	 0.226882
H	 -2.382952	 -1.693172	 0.114333
H	 -3.296656	 -0.175702	 0.158400
H	 -2.312537	 -0.685191	 1.540100
C	 0.477535	 -1.539163	 -0.615209
C	 1.316984	 -2.425853	 0.282688
C	 1.276851	 -0.906794	 -1.740291
H	 -0.345115	 -2.102703	 -1.028438
H	 0.712371	 -2.851814	 1.073100
H	 1.747547	 -3.235942	 -0.293579
H	 2.123102	 -1.860860	 0.735338
H	 1.700859	 -1.678673	 -2.371893
H	 0.646224	 -0.277812	 -2.352941
H	 2.087976	 -0.308846	 -1.340520
