8

H   -1.153456   -1.506249    0.000000
C   -0.072602   -1.459785    0.000000
C   0.366882   -0.024628    0.000000
H   0.306583   -1.958995    -0.881562
H   0.306583   -1.958995    0.881562
F   -0.116812   0.610057    -1.076201
F   -0.116812   0.610057    1.076201
H   1.440398   0.098656    0.000000
