13

H	 -2.305261	 -0.736190	 1.064507
N	 -1.529793	 -0.108568	 1.046818
C	 -0.561396	 -0.500007	 0.035200
H	 -1.119342	 -0.121542	 1.957146
C	 0.575129	 0.507849	 -0.048832
H	 -1.075386	 -0.538091	 -0.919568
H	 -0.145691	 -1.494136	 0.206403
C	 1.951750	 -0.141983	 0.035101
H	 0.478254	 1.061643	 -0.975981
H	 0.467676	 1.231891	 0.755499
H	 2.101550	 -0.848142	 -0.774949
H	 2.738260	 0.600794	 -0.026526
H	 2.078939	 -0.679792	 0.968824
