9

H	 1.168373	 -1.086309	 1.731399
C	 0.246417	 -1.196416	 1.179508
O	 0.000000	 0.000000	 0.518769
H	 0.353497	 -2.023143	 0.480286
H	 -0.552620	 -1.438246	 1.877300
C	 -1.165153	 0.000000	 -0.236961
H	 -1.229451	 0.882440	 -0.870223
H	 -2.002557	 0.000000	 0.445289
H	 -1.229451	 -0.882440	 -0.870223
