25

H	 -1.544588	 -1.136992	 -3.231058
C	 -2.260108	 -0.961427	 -2.416138
C	 -1.935713	 -1.664015	 -1.125778
O	 -3.203449	 -0.272083	 -2.595637
C	 -0.501866	 -1.404904	 -0.653954
H	 -2.661209	 -1.366538	 -0.379790
H	 -2.064028	 -2.728183	 -1.311212
C	 -0.247837	 0.040196	 -0.230469
H	 -0.289975	 -2.066976	 0.178574
H	 0.192371	 -1.681617	 -1.443674
C	 1.181757	 0.280428	 0.247371
H	 -0.943252	 0.305180	 0.561547
H	 -0.466353	 0.710123	 -1.058041
C	 2.151032	 -0.811012	 -0.202643
H	 1.515939	 1.247397	 -0.115449
H	 1.191514	 0.341223	 1.333422
C	 3.580021	 -0.656538	 0.320835
H	 2.170545	 -0.847575	 -1.289412
H	 1.766632	 -1.772905	 0.124928
C	 4.327657	 0.562694	 -0.213579
H	 4.138806	 -1.549270	 0.057813
H	 3.561991	 -0.620783	 1.406976
H	 4.355973	 0.557257	 -1.298551
H	 3.867136	 1.491650	 0.100501
H	 5.351524	 0.571613	 0.142204
