25

H	 -2.934558	 -1.655969	 1.175873
C	 -3.124531	 -1.107354	 0.244984
C	 -2.747325	 0.351860	 0.276931
O	 -3.595238	 -1.666037	 -0.692064
C	 -1.304021	 0.576517	 0.748798
H	 -2.913958	 0.769940	 -0.709046
H	 -3.430698	 0.843804	 0.968051
C	 -0.252658	 0.041456	 -0.226725
H	 -1.151784	 1.641804	 0.894646
H	 -1.167268	 0.114870	 1.725495
C	 1.180775	 0.282413	 0.250794
H	 -0.395976	 0.511527	 -1.197468
H	 -0.403692	 -1.024876	 -0.383771
C	 2.148627	 -0.814315	 -0.201312
H	 1.516199	 1.249228	 -0.115937
H	 1.192670	 0.346017	 1.338083
C	 3.580890	 -0.659131	 0.322722
H	 2.166869	 -0.852443	 -1.289387
H	 1.762857	 -1.776509	 0.128956
C	 4.324889	 0.564933	 -0.213704
H	 4.142010	 -1.551473	 0.056605
H	 3.564836	 -0.624694	 1.410140
H	 4.342616	 0.565491	 -1.300421
H	 3.866655	 1.493402	 0.110242
H	 5.353900	 0.572371	 0.132816
