22

O	 -0.342751	 -2.293188	 -2.088844
C	 -0.525384	 -1.120676	 -2.031469
C	 -0.881910	 -0.448129	 -0.720509
C	 -0.394426	 -0.238307	 -3.250093
C	 0.376695	 -0.140025	 0.100361
H	 -1.519503	 -1.125986	 -0.167249
H	 -1.435001	 0.466681	 -0.905111
C	 1.630207	 -0.772146	 -0.501001
H	 0.486632	 0.935267	 0.162725
H	 0.248225	 -0.501310	 1.117842
C	 2.907848	 -0.545876	 0.309149
H	 1.772784	 -0.391628	 -1.509394
H	 1.468529	 -1.842059	 -0.599744
C	 3.373802	 0.906639	 0.372125
H	 3.699140	 -1.146831	 -0.127906
H	 2.764321	 -0.923458	 1.318191
H	 3.519798	 1.311927	 -0.623875
H	 4.316899	 0.983758	 0.900700
H	 2.661122	 1.540651	 0.885346
H	 -1.372354	 0.150257	 -3.515934
H	 0.005561	 -0.803802	 -4.077616
H	 0.242112	 0.613736	 -3.039305
