22

O	 -0.131698	 -0.605612	 -2.941090
C	 -0.758734	 0.017575	 -2.139280
C	 -0.889235	 -0.467034	 -0.705952
C	 -1.423781	 1.328169	 -2.496255
C	 0.379448	 -0.143569	 0.099626
H	 -1.035919	 -1.541277	 -0.734072
H	 -1.756367	 -0.019550	 -0.228598
C	 1.631333	 -0.777471	 -0.511575
H	 0.482768	 0.934507	 0.149241
H	 0.263088	 -0.495696	 1.123449
C	 2.915987	 -0.544314	 0.291766
H	 1.766672	 -0.399098	 -1.523130
H	 1.471257	 -1.849544	 -0.605828
C	 3.373361	 0.914346	 0.347591
H	 3.708709	 -1.142521	 -0.150311
H	 2.780642	 -0.921148	 1.303579
H	 3.506512	 1.320010	 -0.651625
H	 4.322697	 0.999599	 0.867103
H	 2.660624	 1.545032	 0.868198
H	 -2.503456	 1.217519	 -2.438611
H	 -1.146217	 1.623280	 -3.498578
H	 -1.143704	 2.105866	 -1.791594
