9

H	 0.078996	 -2.551763	 0.299844
C	 -0.800025	 -1.908713	 0.372347
N	 -0.537714	 -0.645117	 0.000000
O	 -1.851563	 -2.324024	 0.744508
C	 -1.522613	 0.412524	 0.000000
H	 0.386299	 -0.438420	 -0.288896
H	 -2.150256	 0.356137	 -0.880771
H	 -1.005621	 1.357208	 0.000000
H	 -2.150256	 0.356137	 0.880771
