11

O	 -0.294688	 1.318815	 -0.000872
C	 -0.448732	 0.145721	 -0.000187
C	 -1.780748	 -0.548101	 0.000195
O	 0.550743	 -0.719877	 0.000412
H	 -1.859389	 -1.183260	 -0.872613
H	 -2.570236	 0.185547	 -0.001342
H	 -1.860233	 -1.180337	 0.875064
C	 0.758984	 -1.468218	 1.181804
H	 0.970465	 -0.813962	 2.014422
H	 1.605270	 -2.105850	 0.984546
H	 -0.111393	 -2.063887	 1.413416
