10

H	 -0.963940	 -0.888916	 1.230779
C	 -0.264826	 -0.060761	 1.207187
N	 0.526300	 -0.128137	 0.000000
H	 0.378586	 -0.149504	 2.073320
H	 -0.841429	 0.861711	 1.302816
C	 -0.247113	 0.037112	 -1.209233
H	 1.255285	 0.550951	 0.032849
H	 -0.996493	 -0.743733	 -1.271440
H	 0.397975	 -0.057351	 -2.073512
H	 -0.763794	 0.997171	 -1.271673
