24

H	 -3.436473	 1.252944	 -1.023892
O	 -3.458596	 0.315260	 -0.960865
C	 -3.176635	 -0.080824	 0.355601
C	 -1.763371	 0.265266	 0.799691
H	 -3.321825	 -1.153438	 0.379502
H	 -3.895468	 0.357385	 1.043382
C	 -0.673390	 -0.426948	 -0.013392
H	 -1.631049	 1.344913	 0.747560
H	 -1.664587	 -0.001624	 1.849167
C	 0.737842	 -0.043159	 0.423759
H	 -0.806103	 -0.190518	 -1.063345
H	 -0.797221	 -1.503753	 0.074146
C	 1.818215	 -0.587271	 -0.508863
H	 0.807038	 1.038946	 0.479893
H	 0.916962	 -0.412975	 1.431236
C	 3.254247	 -0.297410	 -0.068816
H	 1.663133	 -0.187828	 -1.508486
H	 1.694689	 -1.663610	 -0.591662
C	 3.643114	 1.178876	 -0.091294
H	 3.929338	 -0.844012	 -0.720164
H	 3.410227	 -0.695630	 0.930439
H	 3.491836	 1.606070	 -1.077548
H	 4.688889	 1.304851	 0.165079
H	 3.063458	 1.762144	 0.613973
