19

O	 -2.071633	 -1.227563	 -0.223463
C	 -1.652164	 -0.152425	 0.058082
C	 -0.327811	 0.006324	 0.778296
C	 -2.402515	 1.108629	 -0.298924
C	 -0.540829	 0.264217	 2.274804
H	 0.282914	 -0.879869	 0.641172
H	 0.187928	 0.847972	 0.333909
C	 0.770279	 0.447937	 3.033404
H	 -1.095661	 -0.560504	 2.714908
H	 -1.157105	 1.149225	 2.390264
C	 0.562921	 0.717184	 4.519900
H	 1.385855	 -0.438724	 2.909215
H	 1.325474	 1.270045	 2.591323
H	 0.040213	 -0.104558	 4.997970
H	 -0.023084	 1.616380	 4.676145
H	 1.510521	 0.846963	 5.029423
H	 -3.240910	 0.874416	 -0.936711
H	 -1.747554	 1.818823	 -0.790984
H	 -2.760419	 1.579708	 0.610998
