16

H   -3.034039   -0.667848    0.004703
O   -2.240597   -1.171748    0.000934
C   -1.159675   -0.364500    0.000370
C   -1.263522   1.011581    0.006022
C   0.086397   -0.972201    -0.007305
H   -2.228477   1.484767    0.009968
C   -0.107169   1.772543    0.002554
H   0.132328   -2.044014    -0.013840
C   1.238461   -0.211855    -0.008358
H   -0.183927   2.843467    0.003896
C   1.133129   1.175547    -0.005395
C   2.593687   -0.872734    0.007308
H   2.019974   1.780476    -0.010675
H   3.272119   -0.384754    -0.681479
H   2.526280   -1.916800    -0.266788
H   3.034903   -0.815993    0.996627
