25

O	 2.868453	 1.353349	 -0.000734
C	 2.841259	 0.166180	 -0.000295
C	 1.542794	 -0.614730	 -0.000853
C	 4.113372	 -0.651103	 0.000743
C	 0.288398	 0.247429	 0.000314
H	 1.557171	 -1.273139	 -0.866508
H	 1.557484	 -1.274998	 0.863344
C	 -0.993089	 -0.581367	 -0.000217
H	 0.305153	 0.900562	 -0.864701
H	 0.305567	 0.898805	 0.866656
C	 -2.258482	 0.271340	 0.000669
H	 -1.002280	 -1.233920	 -0.870484
H	 -1.002061	 -1.235367	 0.868958
C	 -2.568830	 0.896097	 1.357908
H	 -3.101740	 -0.338475	 -0.314222
H	 -2.160325	 1.059062	 -0.742289
C	 -3.834690	 1.746590	 1.350881
H	 -2.668289	 0.109369	 2.100946
H	 -1.726993	 1.506857	 1.672871
H	 -4.701295	 1.155931	 1.073108
H	 -4.026124	 2.174716	 2.328164
H	 -3.752948	 2.563880	 0.642079
H	 4.145311	 -1.294584	 -0.871587
H	 4.970080	 0.004978	 -0.000091
H	 4.145223	 -1.291980	 0.874988
