17

O	 -1.850696	 -2.124059	 -0.801160
C	 -0.825565	 -1.667108	 -0.424131
C	 0.486167	 -2.408384	 -0.363062
O	 -0.695554	 -0.422406	 0.000602
C	 0.390112	 -3.847779	 -0.842529
H	 0.836916	 -2.356077	 0.661725
H	 1.201705	 -1.843460	 -0.950260
H	 -0.312351	 -4.411753	 -0.243617
H	 1.359062	 -4.327393	 -0.775781
H	 0.055744	 -3.894495	 -1.870266
C	 -1.852370	 0.402254	 0.000718
C	 -3.063338	 -0.501097	 -0.000437
H	 -1.831732	 1.039442	 -0.872158
H	 -1.832493	 1.038301	 0.874430
H	 -3.071944	 -1.133732	 -0.879113
H	 -3.966302	 0.097976	 -0.000483
H	 -3.072764	 -1.134834	 0.877435
