20

H	 3.325266	 -1.368892	 -1.043588
O	 2.585649	 -1.416503	 -0.456736
C	 1.830548	 -0.337505	 -0.643862
C	 0.626018	 -0.337582	 0.258241
O	 2.110584	 0.495632	 -1.434624
C	 -0.267326	 0.883135	 0.076490
H	 0.095336	 -1.263269	 0.070257
H	 0.992763	 -0.407272	 1.277592
C	 -1.726822	 0.642622	 0.463839
H	 -0.210803	 1.217591	 -0.953497
H	 0.129920	 1.693110	 0.675679
C	 -2.480891	 -0.340606	 -0.429852
H	 -2.243098	 1.597649	 0.438609
H	 -1.776542	 0.301208	 1.495542
C	 -3.955933	 -0.460128	 -0.060472
H	 -2.393755	 -0.020485	 -1.464726
H	 -2.024244	 -1.323637	 -0.374360
H	 -4.467673	 -1.160944	 -0.709827
H	 -4.458917	 0.497287	 -0.144505
H	 -4.076458	 -0.806900	 0.960497
