18

H	 -3.135461	 -1.215070	 0.001379
O	 -2.310168	 -0.871793	 -0.309793
C	 -2.026376	 0.340750	 0.341611
C	 -0.673256	 0.843270	 -0.132153
H	 -2.792215	 1.080697	 0.115987
H	 -2.013526	 0.200402	 1.421792
C	 0.486613	 -0.083066	 0.235839
H	 -0.715586	 0.970948	 -1.210718
H	 -0.508072	 1.829858	 0.297090
C	 1.239314	 0.372624	 1.487079
H	 1.173820	 -0.142477	 -0.601855
H	 0.104017	 -1.090629	 0.394825
C	 2.394755	 -0.556301	 1.858197
H	 1.622689	 1.378537	 1.329345
H	 0.546741	 0.438251	 2.324026
H	 3.122557	 -0.615518	 1.054028
H	 2.911300	 -0.207396	 2.747237
H	 2.039756	 -1.563945	 2.056036
