27

H	 -1.828265	 -2.245073	 -4.776616
O	 -2.145859	 -3.118470	 -4.911310
C	 -1.438886	 -4.022268	 -4.103466
C	 -1.796182	 -3.924457	 -2.627845
H	 -1.690722	 -5.007459	 -4.472191
H	 -0.366667	 -3.892552	 -4.237517
C	 -1.404384	 -2.601264	 -1.974006
H	 -2.864940	 -4.083455	 -2.519979
H	 -1.301369	 -4.742231	 -2.109383
C	 -1.748597	 -2.552426	 -0.486065
H	 -1.903402	 -1.786052	 -2.487243
H	 -0.334683	 -2.441103	 -2.098003
C	 -1.311023	 -1.277304	 0.237018
H	 -2.820831	 -2.684562	 -0.363258
H	 -1.281757	 -3.402290	 0.004098
C	 -2.041121	 -0.006551	 -0.194127
H	 -1.465887	 -1.419715	 1.302975
H	 -0.240268	 -1.139401	 0.104276
C	 -3.489218	 0.042606	 0.286507
H	 -2.022185	 0.066287	 -1.279394
H	 -1.518764	 0.869305	 0.178730
C	 -4.219984	 1.311773	 -0.139038
H	 -4.022855	 -0.824300	 -0.093339
H	 -3.510372	 -0.038577	 1.370031
H	 -4.244251	 1.405725	 -1.219696
H	 -5.244345	 1.313233	 0.215630
H	 -3.732090	 2.196311	 0.257073
