20

O	 0.876308	 1.842498	 -0.473877
C	 0.136129	 1.684621	 -1.383970
C	 -1.131502	 0.870107	 -1.350193
O	 0.333130	 2.217784	 -2.578669
C	 -1.413045	 0.229353	 0.001137
H	 -1.942138	 1.525844	 -1.650790
H	 -1.052469	 0.121215	 -2.131459
C	 -2.702562	 -0.586401	 0.000228
H	 -1.467975	 1.002276	 0.759499
H	 -0.577880	 -0.404146	 0.278128
C	 -3.953810	 0.284959	 -0.000782
H	 -2.717793	 -1.238567	 -0.869075
H	 -2.719108	 -1.238472	 0.869576
H	 -3.983727	 0.924403	 -0.876454
H	 -4.852989	 -0.320147	 -0.001515
H	 -3.985140	 0.924399	 0.874841
C	 1.490248	 3.010299	 -2.752786
H	 1.477519	 3.856345	 -2.081764
H	 1.469108	 3.346974	 -3.776539
H	 2.381732	 2.428902	 -2.569871
