28

H	 1.865576	 6.253794	 -0.912341
C	 0.855708	 5.994666	 -1.208799
C	 0.585339	 4.507985	 -1.003849
H	 0.173150	 6.598250	 -0.620566
H	 0.733808	 6.276746	 -2.249650
C	 -0.826686	 4.103557	 -1.421691
H	 0.739453	 4.256990	 0.039314
H	 1.307413	 3.929694	 -1.575699
C	 -1.124042	 2.619276	 -1.233606
H	 -1.550232	 4.681942	 -0.860638
H	 -0.969755	 4.349460	 -2.469950
C	 -1.279217	 2.181629	 0.213070
H	 -2.058314	 2.364984	 -1.727810
H	 -0.363721	 2.006997	 -1.709574
C	 -1.180025	 0.697761	 0.509157
O	 -1.491308	 2.964144	 1.082531
C	 -2.285431	 -0.137488	 -0.145671
H	 -1.215772	 0.586099	 1.584374
H	 -0.210824	 0.343857	 0.167691
C	 -3.646545	 0.082747	 0.508954
H	 -2.348635	 0.118247	 -1.199806
H	 -2.034895	 -1.192387	 -0.096473
C	 -4.757412	 -0.737227	 -0.138149
H	 -3.900211	 1.137405	 0.459735
H	 -3.580878	 -0.166775	 1.564416
H	 -4.867876	 -0.486707	 -1.187777
H	 -4.549650	 -1.800049	 -0.072540
H	 -5.709585	 -0.556397	 0.346597
