9

H	 -2.645676	 0.019911	 -0.181993
C	 -1.660488	 -0.427671	 -0.188611
C	 -0.600949	 0.658697	 -0.000002
H	 -1.523530	 -0.941573	 -1.130541
H	 -1.610424	 -1.158533	 0.607267
C	 0.763408	 0.112229	 -0.000006
H	 -0.660362	 1.395064	 -0.790676
H	 -0.746767	 1.179328	 0.937343
N	 1.806008	 -0.317179	 0.000007
