20

O	 1.371313	 1.045657	 0.700935
C	 1.121787	 0.124983	 0.000110
C	 -0.170912	 -0.649867	 -0.000147
O	 1.969101	 -0.353489	 -0.896273
C	 -1.413045	 0.229353	 0.001137
H	 -0.152877	 -1.303435	 -0.866175
H	 -0.152278	 -1.305116	 0.864586
C	 -1.206712	 1.528015	 -0.772952
H	 -1.692896	 0.452372	 1.024605
H	 -2.243544	 -0.323360	 -0.423509
C	 -2.444846	 2.417905	 -0.776170
H	 -0.371250	 2.075786	 -0.344946
H	 -0.926358	 1.298161	 -1.797552
H	 -2.730262	 2.693636	 0.233332
H	 -2.269556	 3.331584	 -1.332175
H	 -3.289355	 1.910455	 -1.229910
C	 3.226978	 0.281687	 -1.004047
H	 3.107866	 1.319775	 -1.276836
H	 3.762124	 -0.246898	 -1.776112
H	 3.765395	 0.222432	 -0.069799
