12

H	 -1.088256	 -1.364742	 0.152233
O	 -1.432053	 -0.565244	 -0.200812
C	 -0.727158	 0.534527	 0.310686
C	 0.680222	 0.664433	 -0.252229
H	 -1.306802	 1.408001	 0.044211
H	 -0.690821	 0.490158	 1.397609
C	 0.792685	 0.293849	 -1.728056
H	 1.019974	 1.684063	 -0.103386
H	 1.335105	 0.023709	 0.331937
H	 0.197351	 0.952718	 -2.350626
H	 1.817540	 0.370810	 -2.070550
H	 0.462410	 -0.725405	 -1.904114
