27

H	 1.258961	 -5.445908	 -1.298746
O	 2.134133	 -5.217514	 -1.551212
C	 2.121985	 -4.075227	 -2.366261
C	 1.810817	 -2.793003	 -1.608789
H	 3.111764	 -4.009564	 -2.797547
H	 1.420287	 -4.203054	 -3.188288
C	 0.400185	 -2.734861	 -1.026909
H	 2.540017	 -2.676550	 -0.812633
H	 1.952882	 -1.958754	 -2.291609
C	 0.113298	 -1.420414	 -0.302504
H	 0.260930	 -3.563487	 -0.340622
H	 -0.325464	 -2.866396	 -1.827795
C	 -1.311023	 -1.277304	 0.237018
H	 0.820251	 -1.301779	 0.515035
H	 0.304570	 -0.599693	 -0.988288
C	 -2.041121	 -0.006551	 -0.194127
H	 -1.888548	 -2.136293	 -0.093331
H	 -1.289731	 -1.328757	 1.323321
C	 -3.489218	 0.042606	 0.286507
H	 -2.022185	 0.066287	 -1.279394
H	 -1.518764	 0.869305	 0.178730
C	 -4.219984	 1.311773	 -0.139038
H	 -4.022855	 -0.824300	 -0.093339
H	 -3.510372	 -0.038577	 1.370031
H	 -4.244251	 1.405725	 -1.219696
H	 -5.244345	 1.313233	 0.215630
H	 -3.732090	 2.196311	 0.257073
