16

H	 3.273419	 0.176595	 -0.102789
N	 2.433987	 -0.362316	 -0.080024
C	 1.263552	 0.494993	 0.021953
H	 2.497638	 -0.973615	 0.707122
C	 -0.016533	 -0.325589	 -0.026925
H	 1.280915	 1.180773	 -0.818522
H	 1.263064	 1.106893	 0.925038
C	 -1.280353	 0.525521	 0.047747
H	 -0.016686	 -0.912532	 -0.939714
H	 -0.014099	 -1.037598	 0.796369
C	 -1.700533	 1.089769	 -1.305421
H	 -1.120703	 1.344676	 0.743781
H	 -2.093639	 -0.067443	 0.457421
H	 -0.921098	 1.715569	 -1.726829
H	 -2.597720	 1.691847	 -1.218772
H	 -1.903309	 0.294384	 -2.014945
