20

H	 2.540895	 -2.021409	 -1.644247
O	 2.108863	 -1.817779	 -0.820452
C	 1.348253	 -0.739501	 -1.008086
C	 0.624473	 -0.343591	 0.253101
O	 1.280022	 -0.190092	 -2.059042
C	 -0.265902	 0.883932	 0.072916
H	 0.061804	 -1.211392	 0.581275
H	 1.378989	 -0.172714	 1.016815
C	 -1.728698	 0.646073	 0.462102
H	 -0.209144	 1.219470	 -0.958188
H	 0.135059	 1.692851	 0.673903
C	 -2.482460	 -0.343073	 -0.431425
H	 -2.245265	 1.602650	 0.432430
H	 -1.779332	 0.308348	 1.496285
C	 -3.960546	 -0.461025	 -0.060175
H	 -2.395034	 -0.026811	 -1.468912
H	 -2.024850	 -1.327147	 -0.371646
H	 -4.472726	 -1.168004	 -0.705284
H	 -4.465146	 0.496508	 -0.151489
H	 -4.081218	 -0.800940	 0.964585
