16

H	 3.273419	 0.176595	 -0.102789
N	 2.433987	 -0.362316	 -0.080024
C	 1.263552	 0.494993	 0.021953
H	 2.497638	 -0.973615	 0.707122
C	 -0.016533	 -0.325589	 -0.026925
H	 1.280915	 1.180773	 -0.818522
H	 1.263064	 1.106893	 0.925038
C	 -1.280353	 0.525521	 0.047747
H	 -0.016686	 -0.912532	 -0.939714
H	 -0.014099	 -1.037598	 0.796369
C	 -2.535395	 -0.293475	 0.330778
H	 -1.406669	 1.063219	 -0.888144
H	 -1.163721	 1.281636	 0.819474
H	 -2.699019	 -1.037227	 -0.441743
H	 -3.415360	 0.337989	 0.373968
H	 -2.456226	 -0.815602	 1.278563
