20

O	 -2.440701	 -0.934798	 -0.415053
C	 -1.922978	 0.063265	 -0.045005
C	 -2.632749	 1.372204	 0.158357
O	 -0.637375	 0.157174	 0.243149
H	 -2.187724	 2.129143	 -0.474664
H	 -3.677681	 1.257276	 -0.079438
H	 -2.516788	 1.693160	 1.185542
C	 0.162530	 -1.009518	 0.097799
C	 1.587210	 -0.664190	 0.477086
H	 0.096803	 -1.356267	 -0.924704
H	 -0.233803	 -1.785900	 0.736810
C	 2.372583	 0.047972	 -0.620994
H	 2.086713	 -1.593548	 0.736943
H	 1.573970	 -0.055628	 1.376149
C	 3.809811	 0.353233	 -0.212573
H	 2.374755	 -0.569666	 -1.515208
H	 1.867099	 0.969879	 -0.884464
H	 4.344967	 0.854370	 -1.010605
H	 4.351666	 -0.555256	 0.029157
H	 3.839899	 0.996865	 0.660267
