29

O	 3.219313	 0.959291	 -0.614106
C	 2.698710	 0.058177	 -0.050237
C	 1.246364	 -0.005813	 0.348416
O	 3.344101	 -1.038700	 0.312317
C	 0.453207	 1.232821	 -0.049003
H	 0.839270	 -0.907818	 -0.092281
H	 1.216683	 -0.160521	 1.422434
C	 -0.998367	 1.217982	 0.432195
H	 0.481498	 1.345443	 -1.127236
H	 0.951413	 2.105557	 0.354893
C	 -1.882951	 0.151251	 -0.211235
H	 -1.429490	 2.193659	 0.228843
H	 -1.019755	 1.099323	 1.513279
C	 -3.342450	 0.243269	 0.226009
H	 -1.826223	 0.246578	 -1.293162
H	 -1.508033	 -0.839650	 0.027695
C	 -4.270822	 -0.680986	 -0.556712
H	 -3.685365	 1.269480	 0.118119
H	 -3.415352	 0.009205	 1.285615
C	 -5.727272	 -0.582032	 -0.115419
H	 -4.199221	 -0.448163	 -1.615667
H	 -3.931085	 -1.707405	 -0.447629
H	 -6.358435	 -1.250157	 -0.690071
H	 -6.107914	 0.425595	 -0.245450
H	 -5.837434	 -0.842620	 0.932038
C	 4.720529	 -1.114346	 0.001449
H	 4.874321	 -1.055557	 -1.065852
H	 5.057824	 -2.067950	 0.373977
H	 5.264321	 -0.313596	 0.480350
