12

H	 -2.644180	 -0.653737	 1.272255
C	 -2.092774	 -0.380414	 0.391915
O	 -0.808934	 -0.154049	 0.752536
F	 -2.163230	 -1.351640	 -0.507133
F	 -2.627232	 0.691260	 -0.169301
C	 -0.338285	 1.141099	 0.733029
C	 1.047605	 1.114391	 0.092817
Cl	 -0.239173	 1.812372	 2.371659
H	 -0.961980	 1.799025	 0.153559
F	 1.546950	 2.322621	 0.030692
F	 0.943282	 0.656702	 -1.132317
F	 1.879687	 0.350375	 0.745634
