25

H	 -3.264913	 1.574876	 0.552401
C	 -3.285688	 0.815426	 -0.241130
C	 -2.311350	 1.045780	 -1.364292
O	 -4.043525	 -0.089290	 -0.174208
C	 -0.880004	 1.274634	 -0.869773
H	 -2.368504	 0.208024	 -2.047105
H	 -2.652467	 1.932596	 -1.893915
C	 -0.247837	 0.040196	 -0.230469
H	 -0.274118	 1.595525	 -1.710172
H	 -0.871855	 2.098336	 -0.160095
C	 1.181757	 0.280428	 0.247371
H	 -0.256848	 -0.775262	 -0.948837
H	 -0.854798	 -0.291859	 0.607843
C	 2.151032	 -0.811012	 -0.202643
H	 1.515939	 1.247397	 -0.115449
H	 1.191514	 0.341223	 1.333422
C	 3.580021	 -0.656538	 0.320835
H	 2.170545	 -0.847575	 -1.289412
H	 1.766632	 -1.772905	 0.124928
C	 4.327657	 0.562694	 -0.213579
H	 4.138806	 -1.549270	 0.057813
H	 3.561991	 -0.620783	 1.406976
H	 4.355973	 0.557257	 -1.298551
H	 3.867136	 1.491650	 0.100501
H	 5.351524	 0.571613	 0.142204
