22

O	 -1.605114	 2.308923	 0.246708
C	 -1.669443	 1.261632	 -0.310494
C	 -0.441539	 0.634470	 -0.940548
C	 -2.966063	 0.493069	 -0.404599
C	 0.376695	 -0.140025	 0.100361
H	 0.159854	 1.434528	 -1.353277
H	 -0.730443	 -0.027778	 -1.749762
C	 1.630207	 -0.772146	 -0.501001
H	 0.641216	 0.540912	 0.899474
H	 -0.238125	 -0.919585	 0.543737
C	 2.907848	 -0.545876	 0.309149
H	 1.772784	 -0.391628	 -1.509394
H	 1.468529	 -1.842059	 -0.599744
C	 3.373802	 0.906639	 0.372125
H	 3.699140	 -1.146831	 -0.127906
H	 2.764321	 -0.923458	 1.318191
H	 3.519798	 1.311927	 -0.623875
H	 4.316899	 0.983758	 0.900700
H	 2.661122	 1.540651	 0.885346
H	 -3.294328	 0.472537	 -1.438919
H	 -3.722629	 0.963885	 0.204097
H	 -2.824822	 -0.535811	 -0.093078
