16

O	 -2.081319	 -0.951530	 -0.502732
N	 -1.613558	 0.006676	 0.014756
C	 -0.329345	 -0.171618	 0.743966
O	 -2.068523	 1.100482	 -0.024385
C	 0.835904	 0.041968	 -0.213982
H	 -0.346048	 -1.174374	 1.137184
H	 -0.333613	 0.555559	 1.538590
C	 0.361973	 0.090301	 -1.664231
H	 1.337691	 0.967542	 0.043079
H	 1.550131	 -0.762868	 -0.084157
C	 1.510757	 0.296182	 -2.645245
H	 -0.361297	 0.891961	 -1.781107
H	 -0.157959	 -0.832257	 -1.904988
H	 2.029027	 1.228364	 -2.449979
H	 2.235012	 -0.507541	 -2.573128
H	 1.148057	 0.325511	 -3.665417
