12

H	 -2.644180	 -0.653737	 1.272255
C	 -2.092774	 -0.380414	 0.391915
O	 -0.808934	 -0.154049	 0.752536
F	 -2.163230	 -1.351640	 -0.507133
F	 -2.627232	 0.691260	 -0.169301
C	 0.085006	 0.250800	 -0.215074
C	 0.650550	 1.600402	 0.220827
Cl	 -0.705673	 0.403680	 -1.795261
H	 0.906388	 -0.434290	 -0.331820
F	 1.521981	 2.035875	 -0.653240
F	 1.268365	 1.453790	 1.368923
F	 -0.280339	 2.502430	 0.369293
