29

O	 3.219313	 0.959291	 -0.614106
C	 2.698710	 0.058177	 -0.050237
C	 1.246364	 -0.005813	 0.348416
O	 3.344101	 -1.038700	 0.312317
C	 0.453207	 1.232821	 -0.049003
H	 0.839270	 -0.907818	 -0.092281
H	 1.216683	 -0.160521	 1.422434
C	 -0.998367	 1.217982	 0.432195
H	 0.481498	 1.345443	 -1.127236
H	 0.951413	 2.105557	 0.354893
C	 -1.882951	 0.151251	 -0.211235
H	 -1.429490	 2.193659	 0.228843
H	 -1.019755	 1.099323	 1.513279
C	 -2.631714	 -0.699220	 0.811428
H	 -2.600848	 0.633937	 -0.870408
H	 -1.284335	 -0.502543	 -0.838728
C	 -1.719656	 -1.608153	 1.630431
H	 -3.374296	 -1.305933	 0.298777
H	 -3.184701	 -0.047817	 1.484291
C	 -2.475126	 -2.455829	 2.648511
H	 -1.166580	 -2.259788	 0.959463
H	 -0.978576	 -1.003032	 2.145684
H	 -1.799154	 -3.088417	 3.212318
H	 -3.200331	 -3.098914	 2.161038
H	 -3.011611	 -1.832199	 3.355955
C	 4.720529	 -1.114346	 0.001449
H	 4.874321	 -1.055557	 -1.065852
H	 5.057824	 -2.067950	 0.373977
H	 5.264321	 -0.313596	 0.480350
