25

H	 -1.026832	 0.497929	 4.328671
C	 -1.643607	 -0.202162	 3.751536
C	 -2.101755	 0.309195	 2.409439
O	 -1.904911	 -1.273178	 4.194703
C	 -0.941899	 0.836271	 1.553180
H	 -2.639729	 -0.485672	 1.905972
H	 -2.804239	 1.119924	 2.598886
C	 0.036736	 -0.255303	 1.112682
H	 -1.356170	 1.324663	 0.676175
H	 -0.407154	 1.607908	 2.104887
C	 1.180775	 0.282413	 0.250794
H	 -0.506848	 -1.018583	 0.559721
H	 0.450538	 -0.754607	 1.986754
C	 2.148627	 -0.814315	 -0.201312
H	 0.761402	 0.788813	 -0.614895
H	 1.730252	 1.037577	 0.811317
C	 3.580890	 -0.659131	 0.322722
H	 2.166869	 -0.852443	 -1.289387
H	 1.762857	 -1.776509	 0.128956
C	 4.324889	 0.564933	 -0.213704
H	 4.142010	 -1.551473	 0.056605
H	 3.564836	 -0.624694	 1.410140
H	 4.342616	 0.565491	 -1.300421
H	 3.866655	 1.493402	 0.110242
H	 5.353900	 0.572371	 0.132816
