25

H	 -3.295322	 0.661217	 -0.915501
C	 -2.779632	 1.084978	 -1.788069
C	 -1.791280	 2.174681	 -1.472474
O	 -3.027463	 0.686102	 -2.872867
C	 -0.784698	 1.767397	 -0.392388
H	 -1.296270	 2.466874	 -2.389493
H	 -2.369815	 3.025424	 -1.119148
C	 0.178063	 0.667828	 -0.835357
H	 -0.219148	 2.646113	 -0.101957
H	 -1.321432	 1.446544	 0.497086
C	 1.181757	 0.280428	 0.247371
H	 0.712269	 0.999966	 -1.721595
H	 -0.382780	 -0.213406	 -1.135871
C	 2.151032	 -0.811012	 -0.202643
H	 1.732598	 1.165770	 0.549181
H	 0.644148	 -0.060734	 1.129348
C	 3.580021	 -0.656538	 0.320835
H	 2.170545	 -0.847575	 -1.289412
H	 1.766632	 -1.772905	 0.124928
C	 4.327657	 0.562694	 -0.213579
H	 4.138806	 -1.549270	 0.057813
H	 3.561991	 -0.620783	 1.406976
H	 4.355973	 0.557257	 -1.298551
H	 3.867136	 1.491650	 0.100501
H	 5.351524	 0.571613	 0.142204
