10

H	 -3.018157	 1.878655	 -0.637476
O	 -2.690191	 2.115208	 0.211602
C	 -1.301487	 1.993698	 0.230633
C	 -0.793473	 0.591216	 0.050087
H	 -0.973792	 2.370628	 1.192321
H	 -0.845938	 2.632327	 -0.523905
C	 -1.534243	 -0.493009	 -0.013340
H	 0.278089	 0.508532	 -0.028433
H	 -1.101195	 -1.466332	 -0.144046
H	 -2.604242	 -0.437780	 0.050785
