19

H	 0.939812	 4.203698	 1.926799
N	 0.122584	 3.636190	 1.851363
C	 0.350669	 2.504155	 0.967093
H	 -0.609502	 4.219013	 1.502485
C	 -0.869995	 1.597229	 0.920316
H	 1.196287	 1.946007	 1.354788
H	 0.613264	 2.804957	 -0.048051
C	 -0.678115	 0.376691	 0.025731
H	 -1.106734	 1.284608	 1.932062
H	 -1.724872	 2.171094	 0.567687
C	 -1.900706	 -0.535531	 -0.022488
H	 0.178764	 -0.194443	 0.375758
H	 -0.435034	 0.700361	 -0.983735
C	 -3.220513	 0.226854	 0.028039
H	 -1.865036	 -1.134397	 -0.928236
H	 -1.857948	 -1.236381	 0.806820
H	 -3.309098	 0.911849	 -0.808725
H	 -4.066838	 -0.449485	 -0.008086
H	 -3.301685	 0.809374	 0.939860
