27

H	 2.167901	 -2.872754	 -0.546990
O	 2.923546	 -2.578667	 -1.020638
C	 2.597184	 -2.358890	 -2.367657
C	 1.747793	 -1.116576	 -2.590987
H	 3.540244	 -2.250425	 -2.886167
H	 2.098880	 -3.231946	 -2.784690
C	 0.352472	 -1.191742	 -1.975131
H	 2.278847	 -0.258430	 -2.190082
H	 1.659623	 -0.960530	 -3.663495
C	 -0.482150	 0.058814	 -2.247809
H	 0.440751	 -1.340773	 -0.904150
H	 -0.169213	 -2.061789	 -2.370288
C	 -1.915820	 0.007514	 -1.716573
H	 0.024916	 0.924648	 -1.828951
H	 -0.519612	 0.221232	 -3.321441
C	 -2.041121	 -0.006551	 -0.194127
H	 -2.452214	 0.871458	 -2.099210
H	 -2.419130	 -0.865131	 -2.126849
C	 -3.489218	 0.042606	 0.286507
H	 -1.499057	 0.842151	 0.217382
H	 -1.567769	 -0.895560	 0.211587
C	 -4.219984	 1.311773	 -0.139038
H	 -4.022855	 -0.824300	 -0.093339
H	 -3.510372	 -0.038577	 1.370031
H	 -4.244251	 1.405725	 -1.219696
H	 -5.244345	 1.313233	 0.215630
H	 -3.732090	 2.196311	 0.257073
