15

H	 2.342730	 0.877684	 -1.045694
C	 2.360424	 0.000000	 -0.411793
C	 1.173749	 0.000000	 0.526870
H	 3.286567	 0.000000	 0.151574
H	 2.342730	 -0.877684	 -1.045694
O	 -0.000000	 0.000000	 -0.223739
H	 1.203779	 0.876757	 1.172538
H	 1.203779	 -0.876757	 1.172538
C	 -1.173749	 0.000000	 0.526870
C	 -1.008867	 0.939111	 1.701676
H	 -1.392380	 -1.007804	 0.877616
H	 -2.012742	 0.314660	 -0.092462
H	 -0.184969	 0.621606	 2.328459
H	 -1.912001	 0.955098	 2.301023
H	 -0.805987	 1.945469	 1.357355
