20

O	 0.226734	 0.848709	 -0.275861
C	 1.121787	 0.124983	 0.000110
C	 1.451597	 -0.370850	 1.384609
O	 1.969101	 -0.353489	 -0.896273
C	 0.243456	 -0.878501	 2.158309
H	 2.203458	 -1.145845	 1.277052
H	 1.940283	 0.443748	 1.909088
C	 -0.541911	 -1.932645	 1.383527
H	 -0.403585	 -0.042936	 2.400609
H	 0.571958	 -1.288641	 3.106685
C	 -1.756321	 -2.446743	 2.148905
H	 -0.865508	 -1.516919	 0.432897
H	 0.111629	 -2.767204	 1.143460
H	 -2.446259	 -1.640517	 2.373782
H	 -2.294145	 -3.192824	 1.575507
H	 -1.462057	 -2.899980	 3.089419
C	 3.226978	 0.281687	 -1.004047
H	 3.107866	 1.319775	 -1.276836
H	 3.762124	 -0.246898	 -1.776112
H	 3.765395	 0.222432	 -0.069799
