21

H	 -2.016790	 1.495190	 3.873231
O	 -1.320148	 0.933619	 3.587709
C	 -1.177145	 1.011903	 2.194210
C	 -0.046826	 0.094713	 1.773182
H	 -2.099457	 0.714496	 1.699576
H	 -0.957659	 2.033484	 1.890849
C	 0.196029	 0.106276	 0.266738
H	 -0.279499	 -0.912196	 2.105170
H	 0.853866	 0.395554	 2.298698
C	 1.330220	 -0.826136	 -0.155230
H	 -0.720701	 -0.172296	 -0.243868
H	 0.430349	 1.118812	 -0.054895
C	 2.719700	 -0.407669	 0.328325
H	 1.339388	 -0.911200	 -1.239363
H	 1.119001	 -1.821953	 0.224128
C	 3.872759	 -0.884873	 -0.551499
H	 2.864408	 -0.796711	 1.331527
H	 2.757661	 0.675055	 0.416078
H	 3.856311	 -1.964381	 -0.663088
H	 3.834391	 -0.449613	 -1.542844
H	 4.827107	 -0.613674	 -0.114642
