13

H	 -4.015554	 0.698403	 -0.552379
C	 -3.330434	 0.066476	 -0.021400
C	 -2.076860	 -0.007332	 -0.404944
H	 -3.694820	 -0.494061	 0.818797
O	 -1.180634	 -0.819263	 0.215062
H	 -1.690501	 0.551267	 -1.239144
C	 0.051604	 -1.018856	 -0.387932
C	 1.043764	 0.054862	 -0.001873
H	 -0.017620	 -1.041351	 -1.469781
H	 0.437898	 -1.966374	 -0.042284
F	 2.212596	 -0.199467	 -0.571921
F	 0.652529	 1.252447	 -0.405055
F	 1.230877	 0.110694	 1.300533
