16

H   -2.584460   0.725535    0.872993
C   -2.547022   0.087625    0.000130
C   -1.286531   -0.763243    -0.000332
H   -2.584474   0.726451    -0.872059
H   -3.427034   -0.544421    -0.000190
C   0.000000   0.039916    0.000014
H   -1.264278   -1.420252    -0.865631
H   -1.264255   -1.421204    0.864239
C   1.286532   -0.763243    0.000268
O   -0.000002   1.227510    0.000038
C   2.547023   0.087626    -0.000114
H   1.264245   -1.421103    -0.864380
H   1.264290   -1.420353    0.865489
H   2.584452   0.725630    -0.872909
H   3.427035   -0.544422    0.000125
H   2.584484   0.726356    0.872143
