27

H	 0.372786	 -3.063731	 -4.270100
O	 1.311417	 -3.054546	 -4.296892
C	 1.799065	 -1.830421	 -3.814203
C	 1.658666	 -1.673376	 -2.307448
H	 2.845903	 -1.802073	 -4.084955
H	 1.312159	 -1.000761	 -4.323160
C	 0.214485	 -1.611354	 -1.815164
H	 2.174607	 -2.497936	 -1.824682
H	 2.177171	 -0.762872	 -2.016704
C	 -0.643559	 -0.637472	 -2.621483
H	 0.204127	 -1.321768	 -0.769680
H	 -0.227400	 -2.604887	 -1.869166
C	 -2.118646	 -0.589723	 -2.218876
H	 -0.218340	 0.360322	 -2.545180
H	 -0.583005	 -0.911811	 -3.671026
C	 -2.908299	 -1.866042	 -2.503831
H	 -2.174783	 -0.379365	 -1.154392
H	 -2.599261	 0.249247	 -2.717166
C	 -4.346242	 -1.804960	 -1.994910
H	 -2.401546	 -2.710883	 -2.042406
H	 -2.923006	 -2.065964	 -3.570985
C	 -5.138608	 -3.076236	 -2.281101
H	 -4.340293	 -1.618053	 -0.924579
H	 -4.851434	 -0.956380	 -2.448514
H	 -4.676196	 -3.939210	 -1.813459
H	 -6.152481	 -3.000538	 -1.905016
H	 -5.195439	 -3.270869	 -3.347046
