13

H	 -2.498963	 -0.741158	 -0.729149
O	 -2.346257	 -0.289210	 0.080372
C	 -1.183935	 0.486039	 -0.009831
C	 0.062853	 -0.375310	 0.027457
H	 -1.178881	 1.094526	 -0.908634
H	 -1.184406	 1.155156	 0.838676
O	 0.390825	 -0.611810	 1.357100
H	 0.881887	 0.133138	 -0.483972
H	 -0.123434	 -1.307534	 -0.501534
C	 1.505390	 -1.420564	 1.543873
H	 2.396489	 -0.976645	 1.105519
H	 1.659232	 -1.531878	 2.607183
H	 1.359915	 -2.404960	 1.105329
