23

O	 1.806592	 1.365789	 0.272310
C	 1.583676	 0.325937	 0.803473
C	 0.262597	 -0.403671	 0.786500
O	 2.495222	 -0.346415	 1.494966
C	 -0.823008	 0.326187	 0.001381
H	 0.444204	 -1.394613	 0.379355
H	 -0.035754	 -0.559069	 1.819727
C	 -2.149452	 -0.435131	 -0.000098
H	 -0.484641	 0.479860	 -1.018462
H	 -0.965935	 1.315773	 0.423994
C	 -3.368779	 0.488503	 -0.000883
H	 -2.193746	 -1.087250	 -0.871175
H	 -2.195311	 -1.087803	 0.870418
C	 -4.693822	 -0.272754	 -0.001129
H	 -3.325798	 1.139422	 -0.871284
H	 -3.326423	 1.139959	 0.869145
H	 -4.781274	 -0.907928	 -0.878124
H	 -5.538651	 0.408946	 -0.001420
H	 -4.781694	 -0.907783	 0.875984
C	 3.785298	 0.229792	 1.587944
H	 4.221266	 0.345993	 0.606130
H	 4.372587	 -0.455293	 2.179236
H	 3.736560	 1.194926	 2.071314
