24

H	 -3.436473	 1.252944	 -1.023892
O	 -3.458596	 0.315260	 -0.960865
C	 -3.176635	 -0.080824	 0.355601
C	 -1.763371	 0.265266	 0.799691
H	 -3.321825	 -1.153438	 0.379502
H	 -3.895468	 0.357385	 1.043382
C	 -0.673390	 -0.426948	 -0.013392
H	 -1.631049	 1.344913	 0.747560
H	 -1.664587	 -0.001624	 1.849167
C	 0.737842	 -0.043159	 0.423759
H	 -0.806103	 -0.190518	 -1.063345
H	 -0.797221	 -1.503753	 0.074146
C	 1.484928	 0.774256	 -0.628260
H	 0.679054	 0.514378	 1.353590
H	 1.305444	 -0.944896	 0.644109
C	 1.818914	 0.016636	 -1.914461
H	 2.402942	 1.163631	 -0.194109
H	 0.882171	 1.640688	 -0.886327
C	 2.821681	 -1.121821	 -1.742658
H	 2.217206	 0.724007	 -2.635409
H	 0.902186	 -0.373558	 -2.348949
H	 3.747127	 -0.762255	 -1.304093
H	 3.063210	 -1.569084	 -2.700186
H	 2.437358	 -1.908482	 -1.104641
