25

O	 2.356797	 2.144438	 0.053464
C	 1.265877	 2.601940	 0.156878
C	 0.020950	 1.738252	 0.151131
C	 1.046413	 4.090846	 0.302549
C	 0.288398	 0.247429	 0.000314
H	 -0.522505	 1.941220	 1.071201
H	 -0.622840	 2.097195	 -0.648681
C	 -0.993089	 -0.581367	 -0.000217
H	 0.938696	 -0.080093	 0.803406
H	 0.838409	 0.076067	 -0.917976
C	 -2.258482	 0.271340	 0.000669
H	 -1.002280	 -1.233920	 -0.870484
H	 -1.002061	 -1.235367	 0.868958
C	 -3.544441	 -0.550271	 -0.000253
H	 -2.250545	 0.925250	 -0.867923
H	 -2.250598	 0.923423	 0.870642
C	 -4.804551	 0.308747	 0.000556
H	 -3.553737	 -1.201524	 -0.870151
H	 -3.553831	 -1.203282	 0.868313
H	 -4.842050	 0.949078	 -0.874436
H	 -5.698404	 -0.304480	 -0.000254
H	 -4.842277	 0.947103	 0.876982
H	 0.524148	 4.303123	 1.228954
H	 1.995963	 4.603378	 0.295027
H	 0.426751	 4.458418	 -0.507977
