13

H	 -0.129681	 -0.182918	 0.153847
C	 -1.145025	 -0.109772	 0.485561
C	 -2.105997	 -0.000418	 -0.398703
H	 -1.348821	 -0.129924	 1.538110
O	 -1.857689	 0.207286	 -1.712105
H	 -3.143728	 -0.081730	 -0.131066
C	 -0.679850	 -0.279327	 -2.249714
C	 -0.843806	 -1.683548	 -2.794062
H	 0.128468	 -0.294093	 -1.528481
H	 -0.399105	 0.358048	 -3.074562
F	 0.294611	 -2.084753	 -3.323326
F	 -1.169748	 -2.540975	 -1.850618
F	 -1.764778	 -1.746965	 -3.724786
