27

H	 2.073819	 0.543990	 -3.163919
O	 2.353779	 -0.137814	 -3.745809
C	 2.661080	 -1.299319	 -3.020726
C	 1.434778	 -2.016838	 -2.476633
H	 3.183783	 -1.948363	 -3.710293
H	 3.349679	 -1.069429	 -2.209904
C	 0.662077	 -1.226941	 -1.422667
H	 0.778379	 -2.257431	 -3.307543
H	 1.762595	 -2.961512	 -2.049403
C	 -0.542529	 -1.991837	 -0.876137
H	 0.329401	 -0.287402	 -1.851148
H	 1.329072	 -0.976750	 -0.599376
C	 -1.311023	 -1.277304	 0.237018
H	 -1.222724	 -2.217802	 -1.693756
H	 -0.199194	 -2.949900	 -0.495737
C	 -2.041121	 -0.006551	 -0.194127
H	 -2.039038	 -1.971161	 0.648217
H	 -0.627806	 -1.041249	 1.049820
C	 -3.489218	 0.042606	 0.286507
H	 -2.022185	 0.066287	 -1.279394
H	 -1.518764	 0.869305	 0.178730
C	 -4.219984	 1.311773	 -0.139038
H	 -4.022855	 -0.824300	 -0.093339
H	 -3.510372	 -0.038577	 1.370031
H	 -4.244251	 1.405725	 -1.219696
H	 -5.244345	 1.313233	 0.215630
H	 -3.732090	 2.196311	 0.257073
