15

O	 -0.988175	 -1.402891	 0.050086
C	 -0.675048	 -0.248293	 -0.009686
C	 -1.742492	 0.826599	 -0.011538
N	 0.622280	 0.144970	 -0.099307
H	 -1.692153	 1.431066	 -0.908439
H	 -2.698310	 0.331559	 0.031353
H	 -1.642148	 1.483784	 0.843455
C	 1.577338	 -0.736090	 -0.737700
C	 1.195947	 1.216316	 0.679716
H	 2.278057	 -0.149028	 -1.318711
H	 1.060726	 -1.419675	 -1.386548
H	 2.138457	 -1.308719	 -0.003620
H	 1.971986	 1.700797	 0.101202
H	 0.462684	 1.963554	 0.930429
H	 1.645509	 0.852736	 1.600991
