14

H   1.720584   0.004475    -2.032429
C   1.146959   0.002740    -1.123416
N   1.834519   0.008318    0.000000
C   -0.232322   -0.007589    -1.179906
C   1.146959   0.002740    1.123416
H   -0.727473   -0.015288    -2.131933
C   -0.957025   -0.010724    0.000000
H   1.720584   0.004475    2.032429
C   -0.232322   -0.007589    1.179906
C   -2.462151   0.007458    0.000000
H   -0.727473   -0.015288    2.131933
H   -2.859579   -0.484466    -0.877814
H   -2.859579   -0.484466    0.877814
H   -2.825862   1.029310    0.000000
