21

H	 -2.387594	 -2.874523	 -1.800187
O	 -2.406484	 -2.071947	 -1.312631
C	 -1.103727	 -1.693617	 -0.954711
C	 -1.175688	 -0.398187	 -0.171891
H	 -0.635527	 -2.466910	 -0.349254
H	 -0.489755	 -1.556273	 -1.842408
C	 0.196029	 0.106276	 0.266738
H	 -1.809425	 -0.555389	 0.695222
H	 -1.668659	 0.348059	 -0.786718
C	 1.330220	 -0.826136	 -0.155230
H	 0.359542	 1.097229	 -0.145561
H	 0.212134	 0.218135	 1.348778
C	 2.719700	 -0.407669	 0.328325
H	 1.339388	 -0.911200	 -1.239363
H	 1.119001	 -1.821953	 0.224128
C	 3.241564	 0.893452	 -0.276737
H	 3.418299	 -1.204729	 0.093035
H	 2.711776	 -0.323368	 1.411960
H	 3.254204	 0.841071	 -1.360784
H	 2.634460	 1.745075	 0.005842
H	 4.254264	 1.092401	 0.054971
