19

O	 -2.071633	 -1.227563	 -0.223463
C	 -1.652164	 -0.152425	 0.058082
C	 -0.327811	 0.006324	 0.778296
C	 -2.402515	 1.108629	 -0.298924
C	 0.843231	 -0.001575	 -0.211665
H	 -0.319484	 0.928173	 1.350354
H	 -0.227804	 -0.823091	 1.466705
C	 2.197693	 0.138030	 0.476937
H	 0.722944	 0.805202	 -0.930230
H	 0.813976	 -0.926978	 -0.776588
C	 2.896056	 -1.200755	 0.689320
H	 2.836617	 0.789261	 -0.113147
H	 2.061045	 0.630300	 1.435340
H	 3.078336	 -1.702054	 -0.255406
H	 2.294418	 -1.862309	 1.303118
H	 3.851667	 -1.069004	 1.183133
H	 -3.240910	 0.874416	 -0.936711
H	 -1.747554	 1.818823	 -0.790984
H	 -2.760419	 1.579708	 0.610998
