27

H	 -5.900015	 -3.240511	 -0.850293
O	 -6.208677	 -3.794877	 -0.148526
C	 -5.181917	 -4.665510	 0.253738
C	 -4.075962	 -3.968675	 1.038602
H	 -5.656809	 -5.412822	 0.876375
H	 -4.761396	 -5.182653	 -0.607949
C	 -3.305583	 -2.920717	 0.231653
H	 -4.516936	 -3.502183	 1.915696
H	 -3.384255	 -4.728971	 1.397570
C	 -2.167903	 -2.278368	 1.030334
H	 -3.994553	 -2.149967	 -0.102459
H	 -2.894764	 -3.384508	 -0.665268
C	 -1.309753	 -1.282496	 0.241564
H	 -2.581343	 -1.782106	 1.906484
H	 -1.520726	 -3.067741	 1.406835
C	 -2.037799	 -0.007733	 -0.193645
H	 -0.458178	 -1.002041	 0.857990
H	 -0.896916	 -1.779330	 -0.635111
C	 -3.489788	 0.042957	 0.286558
H	 -2.017067	 0.064384	 -1.280144
H	 -1.513726	 0.868678	 0.179924
C	 -4.216917	 1.317354	 -0.141063
H	 -4.025645	 -0.823308	 -0.095450
H	 -3.513059	 -0.038752	 1.371301
H	 -4.239342	 1.411634	 -1.223113
H	 -5.243387	 1.322503	 0.212445
H	 -3.726170	 2.201406	 0.256408
