15

H	 -3.161837	 0.500524	 -0.000234
C	 -2.367097	 -0.232926	 -0.000000
O	 -1.158440	 0.455814	 -0.000122
H	 -2.468853	 -0.861886	 -0.882833
H	 -2.468942	 -0.861421	 0.883154
C	 -0.029776	 -0.365156	 0.000148
C	 1.212217	 0.508981	 0.000007
H	 -0.036772	 -1.013236	 -0.877259
H	 -0.036869	 -1.012778	 0.877897
C	 0.878712	 1.998202	 -0.076649
H	 1.781635	 0.298149	 0.899993
H	 1.836197	 0.220487	 -0.840302
H	 0.274170	 2.313135	 0.769382
H	 1.782653	 2.597982	 -0.075591
H	 0.328422	 2.234878	 -0.983053
