28

H	 4.098002	 3.636993	 -1.873763
C	 4.070216	 2.635488	 -1.455747
C	 2.767081	 2.389869	 -0.696348
H	 4.181745	 1.931798	 -2.275335
H	 4.932842	 2.524842	 -0.804261
C	 2.698066	 0.987584	 -0.087540
H	 1.927779	 2.533932	 -1.368969
H	 2.667101	 3.130956	 0.095162
C	 1.412233	 0.718564	 0.694463
H	 2.795104	 0.245352	 -0.871963
H	 3.541995	 0.850235	 0.584739
C	 0.169600	 0.576866	 -0.172154
H	 1.509019	 -0.211887	 1.251836
H	 1.242124	 1.491625	 1.440530
C	 -1.181045	 0.701995	 0.511084
O	 0.245480	 0.356965	 -1.343602
C	 -2.285934	 -0.139295	 -0.145128
H	 -1.449051	 1.751551	 0.493206
H	 -1.071135	 0.403303	 1.551943
C	 -3.651768	 0.085446	 0.506485
H	 -2.346596	 0.110469	 -1.202272
H	 -2.034737	 -1.195320	 -0.088721
C	 -4.759797	 -0.746382	 -0.137905
H	 -3.908762	 1.140117	 0.445781
H	 -3.588286	 -0.154158	 1.565709
H	 -4.868882	 -0.505166	 -1.191300
H	 -4.548009	 -1.809175	 -0.062213
H	 -5.715422	 -0.564821	 0.343442
