25

O	 -7.460417	 0.900343	 0.021590
C	 -7.169239	 1.006474	 1.167916
C	 -5.738561	 0.895218	 1.654346
C	 -8.217838	 1.262171	 2.226822
C	 -4.717379	 0.635690	 0.555864
H	 -5.503051	 1.811589	 2.190879
H	 -5.707758	 0.107072	 2.403267
C	 -3.292446	 0.531274	 1.092311
H	 -4.776919	 1.429773	 -0.179664
H	 -4.981924	 -0.276223	 0.032829
C	 -2.258482	 0.271340	 0.000669
H	 -3.034894	 1.448297	 1.617677
H	 -3.240737	 -0.265722	 1.830813
C	 -2.305585	 1.289336	 -1.135201
H	 -2.409203	 -0.725859	 -0.405522
H	 -1.264449	 0.271785	 0.441151
C	 -3.572900	 2.137654	 -1.127623
H	 -1.437227	 1.939525	 -1.070796
H	 -2.226298	 0.769809	 -2.086371
H	 -3.663669	 2.697063	 -0.202494
H	 -3.574663	 2.849112	 -1.945453
H	 -4.458537	 1.518747	 -1.225834
H	 -8.001861	 2.186226	 2.751726
H	 -9.193066	 1.323659	 1.769066
H	 -8.209156	 0.464757	 2.961735
