16

H	 3.085854	 0.516200	 -0.891978
N	 2.264718	 -0.050549	 -0.881013
C	 1.263552	 0.494993	 0.021953
H	 2.542393	 -0.965925	 -0.594097
C	 -0.016533	 -0.325589	 -0.026925
H	 1.049682	 1.510301	 -0.294913
H	 1.611230	 0.556075	 1.054122
C	 -1.280353	 0.525521	 0.047747
H	 -0.016686	 -0.912532	 -0.939714
H	 -0.014099	 -1.037598	 0.796369
C	 -2.560681	 -0.301323	 -0.007747
H	 -1.279957	 1.241025	 -0.770189
H	 -1.270445	 1.110526	 0.963468
H	 -2.617064	 -0.872870	 -0.928010
H	 -3.439525	 0.331102	 0.043462
H	 -2.609427	 -1.002736	 0.818585
