20

O	 1.371313	 1.045657	 0.700935
C	 1.121787	 0.124983	 0.000110
C	 -0.170912	 -0.649867	 -0.000147
O	 1.969101	 -0.353489	 -0.896273
C	 -1.413045	 0.229353	 0.001137
H	 -0.152877	 -1.303435	 -0.866175
H	 -0.152278	 -1.305116	 0.864586
C	 -2.616082	 -0.463302	 -0.632298
H	 -1.199668	 1.151454	 -0.527767
H	 -1.648392	 0.515342	 1.020140
C	 -3.866022	 0.409914	 -0.638303
H	 -2.373079	 -0.750424	 -1.651980
H	 -2.824933	 -1.386565	 -0.098255
H	 -3.699721	 1.326102	 -1.194656
H	 -4.703070	 -0.106752	 -1.093367
H	 -4.154941	 0.685246	 0.370309
C	 3.226978	 0.281687	 -1.004047
H	 3.107866	 1.319775	 -1.276836
H	 3.762124	 -0.246898	 -1.776112
H	 3.765395	 0.222432	 -0.069799
