27

H	 2.614283	 2.028610	 0.296620
O	 3.358864	 1.662087	 -0.142800
C	 3.565468	 0.338079	 0.273842
C	 2.533667	 -0.637565	 -0.272227
H	 4.548038	 0.064914	 -0.086598
H	 3.593945	 0.282242	 1.360360
C	 1.114816	 -0.402372	 0.240993
H	 2.544552	 -0.580764	 -1.356576
H	 2.850574	 -1.642962	 -0.005497
C	 0.113298	 -1.420414	 -0.302504
H	 0.796373	 0.598427	 -0.031033
H	 1.113377	 -0.446476	 1.328807
C	 -1.310443	 -1.278919	 0.238973
H	 0.092462	 -1.356251	 -1.387711
H	 0.472791	 -2.418081	 -0.066085
C	 -2.041926	 -0.008125	 -0.189697
H	 -1.887808	 -2.137887	 -0.091711
H	 -1.287759	 -1.331693	 1.325184
C	 -3.489453	 0.039474	 0.292806
H	 -2.024395	 0.066059	 -1.274896
H	 -1.519687	 0.867621	 0.183584
C	 -4.221596	 1.308675	 -0.130264
H	 -4.022987	 -0.827321	 -0.087439
H	 -3.509199	 -0.043055	 1.376255
H	 -4.247277	 1.403939	 -1.210775
H	 -5.245514	 1.309015	 0.225685
H	 -3.733797	 2.193051	 0.266324
