10

H	 2.095469	 -0.720919	 -0.466551
O	 1.268626	 -0.643524	 -0.028390
C	 0.700177	 0.619554	 -0.266242
C	 -0.713111	 0.588314	 0.266177
H	 0.682318	 0.837438	 -1.329789
H	 1.263170	 1.400056	 0.238965
O	 -1.421673	 -0.521378	 -0.196983
H	 -1.244794	 1.469161	 -0.069059
H	 -0.685100	 0.604721	 1.352683
H	 -0.933408	 -1.297830	 0.014544
