29

O	 0.249164	 -2.410088	 2.221157
C	 0.955285	 -1.839536	 1.461654
C	 1.555285	 -0.473712	 1.678111
O	 1.317782	 -2.342573	 0.292610
C	 1.172755	 0.152067	 3.013523
H	 2.627991	 -0.581662	 1.572280
H	 1.236373	 0.150081	 0.848950
C	 1.483522	 -0.732091	 4.222045
H	 0.117455	 0.401662	 3.002809
H	 1.700249	 1.092261	 3.117429
C	 2.879913	 -1.352136	 4.228731
H	 0.749675	 -1.531984	 4.250427
H	 1.339465	 -0.159467	 5.135625
C	 3.983546	 -0.339996	 3.933177
H	 3.062452	 -1.808380	 5.198985
H	 2.936518	 -2.154464	 3.498936
C	 3.961402	 0.182010	 2.499373
H	 4.950673	 -0.794976	 4.133178
H	 3.895226	 0.498512	 4.620177
C	 5.067914	 1.191194	 2.211355
H	 4.049774	 -0.654695	 1.811743
H	 2.996394	 0.639572	 2.298740
H	 5.023572	 1.541414	 1.186483
H	 6.047852	 0.752954	 2.368758
H	 4.986690	 2.056921	 2.860299
C	 0.824678	 -3.623490	 -0.043565
H	 -0.139967	 -3.792406	 0.411591
H	 1.544729	 -4.329140	 0.337866
H	 0.731980	 -3.727573	 -1.114467
