22

O	 -2.679280	 -0.385587	 0.839990
C	 -1.689604	 -0.490151	 1.488866
C	 -0.446099	 -1.143219	 0.918563
C	 -1.610217	 0.035718	 2.902347
C	 0.376695	 -0.140025	 0.100361
H	 -0.766675	 -1.956549	 0.279942
H	 0.162273	 -1.555255	 1.716671
C	 1.630207	 -0.772146	 -0.501001
H	 -0.256894	 0.262456	 -0.679897
H	 0.666867	 0.696815	 0.731074
C	 2.907848	 -0.545876	 0.309149
H	 1.772784	 -0.391628	 -1.509394
H	 1.468529	 -1.842059	 -0.599744
C	 3.373802	 0.906639	 0.372125
H	 3.699140	 -1.146831	 -0.127906
H	 2.764321	 -0.923458	 1.318191
H	 3.519798	 1.311927	 -0.623875
H	 4.316899	 0.983758	 0.900700
H	 2.661122	 1.540651	 0.885346
H	 -1.523648	 -0.799919	 3.589525
H	 -2.496101	 0.605269	 3.137698
H	 -0.726787	 0.650568	 3.033118
