15

H	 -3.161837	 0.500524	 -0.000234
C	 -2.367097	 -0.232926	 -0.000000
O	 -1.158440	 0.455814	 -0.000122
H	 -2.468853	 -0.861886	 -0.882833
H	 -2.468942	 -0.861421	 0.883154
C	 -0.029776	 -0.365156	 0.000148
C	 1.212217	 0.508981	 0.000007
H	 -0.036772	 -1.013236	 -0.877259
H	 -0.036869	 -1.012778	 0.877897
C	 1.505911	 1.107298	 1.375013
H	 2.053808	 -0.088760	 -0.336283
H	 1.076911	 1.299315	 -0.731953
H	 1.668863	 0.331743	 2.118238
H	 2.396338	 1.726275	 1.345775
H	 0.684627	 1.729209	 1.720157
