27

H	 1.575786	 2.014245	 -2.441169
O	 2.403197	 1.625599	 -2.656051
C	 2.947372	 0.988369	 -1.530402
C	 2.231655	 -0.301676	 -1.158623
H	 3.976604	 0.771395	 -1.782562
H	 2.960364	 1.666836	 -0.679541
C	 0.788513	 -0.108119	 -0.698486
H	 2.256238	 -0.969346	 -2.014643
H	 2.800272	 -0.782841	 -0.366441
C	 0.113298	 -1.420414	 -0.302504
H	 0.219800	 0.365914	 -1.491493
H	 0.769511	 0.573074	 0.150573
C	 -1.311023	 -1.277304	 0.237018
H	 0.107089	 -2.091038	 -1.158338
H	 0.720666	 -1.905562	 0.456578
C	 -2.041121	 -0.006551	 -0.194127
H	 -1.888548	 -2.136293	 -0.093331
H	 -1.289731	 -1.328757	 1.323321
C	 -3.489218	 0.042606	 0.286507
H	 -2.022185	 0.066287	 -1.279394
H	 -1.518764	 0.869305	 0.178730
C	 -4.219984	 1.311773	 -0.139038
H	 -4.022855	 -0.824300	 -0.093339
H	 -3.510372	 -0.038577	 1.370031
H	 -4.244251	 1.405725	 -1.219696
H	 -5.244345	 1.313233	 0.215630
H	 -3.732090	 2.196311	 0.257073
