20

O	 -0.406316	 0.104456	 2.438929
C	 -0.846966	 0.612872	 1.465048
C	 -1.705041	 1.846597	 1.455975
O	 -0.637375	 0.157174	 0.243149
H	 -2.660144	 1.621661	 0.998917
H	 -1.849763	 2.193395	 2.466135
H	 -1.229463	 2.616125	 0.861651
C	 0.162530	 -1.009518	 0.097799
C	 1.587210	 -0.664190	 0.477086
H	 0.096803	 -1.356267	 -0.924704
H	 -0.233803	 -1.785900	 0.736810
C	 1.903169	 0.828416	 0.431655
H	 2.241891	 -1.195406	 -0.208434
H	 1.791520	 -1.055272	 1.469129
C	 3.353257	 1.133830	 0.791631
H	 1.690950	 1.207323	 -0.564583
H	 1.242527	 1.356614	 1.109447
H	 3.551109	 2.198396	 0.747597
H	 4.039856	 0.641574	 0.110707
H	 3.586294	 0.795860	 1.795866
